<routes xmlns:xsi="http://www.w3.org/2001/XMLSchema-instance" xsi:noNamespaceSchemaLocation="http://sumo.dlr.de/xsd/routes_file.xsd">
    <vType id="B_bus" vClass="bus" />
    <trip id="B0" depart="25200" from="572150010#1" to="-107286424" type="B_bus" />
    <trip id="B6" depart="25204" from="-108333857#1" to="-79091723#1" type="B_bus" />
    <trip id="B23" depart="25206" from="-48981800#2" to="-79537023#1" type="B_bus" />
    <trip id="B101" depart="25212" from="79537344#2" to="-78046842#1" type="B_bus" />
    <trip id="B120" depart="25214" from="1002492303#7" to="530397330" type="B_bus" />
    <trip id="B137" depart="25215" from="-571833966" to="-571374975#0" type="B_bus" />
    <trip id="B170" depart="25217" from="79536168#5" to="-79092037#1" type="B_bus" />
    <trip id="B176" depart="25219" from="84247684#0" to="-571374869#0" type="B_bus" />
    <trip id="B177" depart="25220" from="91399076#1" to="-78335806#1" type="B_bus" />
    <trip id="B191" depart="25223" from="-79711716#0" to="1006141643" type="B_bus" />
    <trip id="B207" depart="25227" from="-78518743#1" to="-107286419#7" type="B_bus" />
    <trip id="B235" depart="25230" from="-91859769#0" to="48268326#7" type="B_bus" />
    <trip id="B241" depart="25231" from="-821965162#0" to="79091991#1" type="B_bus" />
    <trip id="B246" depart="25232" from="107286303#2" to="-108333920#2" type="B_bus" />
    <trip id="B258" depart="25234" from="-79535911#2" to="-435540896" type="B_bus" />
    <trip id="B280" depart="25236" from="1007399636#1" to="-87973787#8" type="B_bus" />
    <trip id="B314" depart="25238" from="247462391#1" to="79091746#2" type="B_bus" />
    <trip id="B346" depart="25241" from="78046855#9" to="824638086#1" type="B_bus" />
    <trip id="B352" depart="25242" from="-759045799#1" to="-821229023#5" type="B_bus" />
    <trip id="B377" depart="25245" from="935787571#2" to="74918635#15" type="B_bus" />
    <trip id="B387" depart="25246" from="48136201#10" to="-48509139#0" type="B_bus" />
    <trip id="B394" depart="25249" from="48136015#3" to="-91399035#1" type="B_bus" />
    <trip id="B422" depart="25250" from="79537444#0" to="79711791" type="B_bus" />
    <trip id="B427" depart="25251" from="824631905" to="98356941#3" type="B_bus" />
    <trip id="B454" depart="25256" from="-247462347#0" to="571392776" type="B_bus" />
    <trip id="B489" depart="25260" from="-79537451#5" to="259815365#0" type="B_bus" />
    <trip id="B504" depart="25261" from="79537323#0" to="247462308" type="B_bus" />
    <trip id="B510" depart="25262" from="-79091692#4" to="-79091914#1" type="B_bus" />
    <trip id="B517" depart="25263" from="-107286305" to="79536220#2" type="B_bus" />
    <trip id="B563" depart="25264" from="824648946#2" to="79537093#16" type="B_bus" />
    <trip id="B586" depart="25265" from="-79536018#0" to="-821941555#3" type="B_bus" />
    <trip id="B601" depart="25268" from="486672368" to="439248074" type="B_bus" />
    <trip id="B614" depart="25269" from="107286423#3" to="824638089" type="B_bus" />
    <trip id="B644" depart="25270" from="-821882274" to="530397322#1" type="B_bus" />
    <trip id="B645" depart="25271" from="-572102387#0" to="-824631909#1" type="B_bus" />
    <trip id="B669" depart="25275" from="79091884#1" to="176539375#7" type="B_bus" />
    <trip id="B679" depart="25276" from="821221640" to="48395930#3" type="B_bus" />
    <trip id="B686" depart="25277" from="-821961691#0" to="-108333876#2" type="B_bus" />
    <trip id="B718" depart="25280" from="-821874475#3" to="-232897250#4" type="B_bus" />
    <trip id="B728" depart="25281" from="445512535#0" to="-79536309#3" type="B_bus" />
    <trip id="B743" depart="25284" from="1005762482" to="78335807#6" type="B_bus" />
    <trip id="B752" depart="25285" from="79535874#2" to="-108452875#3" type="B_bus" />
    <trip id="B759" depart="25286" from="-88750486#1" to="654330812#1" type="B_bus" />
    <trip id="B774" depart="25287" from="824644535#8" to="626983749#3" type="B_bus" />
    <trip id="B787" depart="25288" from="-821939993#9" to="821635958" type="B_bus" />
    <trip id="B795" depart="25290" from="821939993#12" to="79537449#9" type="B_bus" />
    <trip id="B808" depart="25291" from="247536020#8" to="572146504#0" type="B_bus" />
    <trip id="B822" depart="25292" from="-824670848" to="572024630" type="B_bus" />
    <trip id="B829" depart="25293" from="88520157" to="375276948#1" type="B_bus" />
    <trip id="B840" depart="25295" from="247540446#4" to="79535639#4" type="B_bus" />
    <trip id="B867" depart="25297" from="78046806#1" to="-108333963#6" type="B_bus" />
    <trip id="B907" depart="25301" from="-78518762#0" to="90972272#5" type="B_bus" />
    <trip id="B909" depart="25302" from="822251322" to="-48268326#2" type="B_bus" />
    <trip id="B935" depart="25304" from="79091937#0" to="88750479#3" type="B_bus" />
    <trip id="B962" depart="25307" from="-247478989#6" to="247462383#0" type="B_bus" />
    <trip id="B991" depart="25310" from="49188669#3" to="78518735#1" type="B_bus" />
    <trip id="B1024" depart="25313" from="-821874475#9" to="88750499#6" type="B_bus" />
    <trip id="B1025" depart="25314" from="-107286309#4" to="824678520" type="B_bus" />
    <trip id="B1035" depart="25315" from="176539406#4" to="79537300" type="B_bus" />
    <trip id="B1066" depart="25319" from="-48514961#13" to="-631993359#1" type="B_bus" />
    <trip id="B1070" depart="25320" from="-914815349#1" to="48514961#6" type="B_bus" />
    <trip id="B1105" depart="25322" from="-440420827" to="572101155#2" type="B_bus" />
    <trip id="B1126" depart="25323" from="-297923435#1" to="-79536222#4" type="B_bus" />
    <trip id="B1133" depart="25324" from="79536651#1" to="79711797#0" type="B_bus" />
    <trip id="B1146" depart="25325" from="78335877#4" to="108452851#1" type="B_bus" />
    <trip id="B1154" depart="25326" from="-89280520#0" to="376279911#0" type="B_bus" />
    <trip id="B1193" depart="25329" from="819578582#0" to="-78518703#2" type="B_bus" />
    <trip id="B1196" depart="25330" from="391058620#0" to="627041177" type="B_bus" />
    <trip id="B1197" depart="25331" from="49157544#0" to="571465480#5" type="B_bus" />
    <trip id="B1202" depart="25332" from="-436441829#3" to="-572102641#0" type="B_bus" />
    <trip id="B1209" depart="25333" from="E0" to="48395935#3" type="B_bus" />
    <trip id="B1210" depart="25334" from="247478994#1" to="-572147998#0" type="B_bus" />
    <trip id="B1215" depart="25335" from="247549480#1" to="268533820#6" type="B_bus" />
    <trip id="B1225" depart="25336" from="79536790#1" to="-824896876#1" type="B_bus" />
    <trip id="B1235" depart="25337" from="48563010#5" to="-824633820#3" type="B_bus" />
    <trip id="B1240" depart="25338" from="-79536767#4" to="48236011" type="B_bus" />
    <trip id="B1249" depart="25339" from="78518713" to="79537083#3" type="B_bus" />
    <trip id="B1270" depart="25342" from="-571386499#0" to="79711758" type="B_bus" />
    <trip id="B1285" depart="25344" from="79536679#0" to="937918433#0" type="B_bus" />
    <trip id="B1290" depart="25346" from="-572024626#0" to="79535874#11" type="B_bus" />
    <trip id="B1336" depart="25353" from="79091820#0" to="-571386787" type="B_bus" />
    <trip id="B1353" depart="25354" from="79711727#21" to="-79536044" type="B_bus" />
    <trip id="B1360" depart="25355" from="-79536463#0" to="-345743071#2" type="B_bus" />
    <trip id="B1362" depart="25356" from="821965160#0" to="-78335807#1" type="B_bus" />
    <trip id="B1371" depart="25357" from="247535966#3" to="79535856#3" type="B_bus" />
    <trip id="B1393" depart="25360" from="79091778#3" to="-821874475#9" type="B_bus" />
    <trip id="B1434" depart="25363" from="375278864#7" to="572162014" type="B_bus" />
    <trip id="B1478" depart="25365" from="48870204#0" to="-78335725" type="B_bus" />
    <trip id="B1511" depart="25368" from="821900518#2" to="-77767446" type="B_bus" />
    <trip id="B1550" depart="25371" from="-79536086#1" to="823970948#3" type="B_bus" />
    <trip id="B1574" depart="25372" from="798416902#4" to="-572103728" type="B_bus" />
    <trip id="B1578" depart="25374" from="-78335756#0" to="-79091857#0" type="B_bus" />
    <trip id="B1628" depart="25380" from="-108452875#0" to="788613106#3" type="B_bus" />
    <trip id="B1632" depart="25382" from="822232226#2" to="78046806#3" type="B_bus" />
    <trip id="B1659" depart="25387" from="247478994#0" to="79535632#0" type="B_bus" />
    <trip id="B1662" depart="25388" from="90972288#0" to="-90972281#3" type="B_bus" />
    <trip id="B1671" depart="25390" from="79536794" to="-79711727#10" type="B_bus" />
    <trip id="B1697" depart="25392" from="-78518730" to="-79091730" type="B_bus" />
    <trip id="B1710" depart="25393" from="155343009#2" to="-49156614#6" type="B_bus" />
    <trip id="B1711" depart="25394" from="-78046812#1" to="-176539406#1" type="B_bus" />
    <trip id="B1732" depart="25400" from="916130890#3" to="-572034805#0" type="B_bus" />
    <trip id="B1737" depart="25402" from="79092049#0" to="49157402#1" type="B_bus" />
    <trip id="B1741" depart="25403" from="-48509139#1" to="762008453#3" type="B_bus" />
    <trip id="B1742" depart="25404" from="-79535816#2" to="-824617659#0" type="B_bus" />
    <trip id="B1744" depart="25405" from="79537104#0" to="48398804#6" type="B_bus" />
    <trip id="B1750" depart="25406" from="91399066#4" to="-247462354" type="B_bus" />
    <trip id="B1754" depart="25407" from="107286419#4" to="79711741#1" type="B_bus" />
    <trip id="B1755" depart="25408" from="107286415#2" to="-571384884#2" type="B_bus" />
    <trip id="B1757" depart="25409" from="-49156617#5" to="102150869#5" type="B_bus" />
    <trip id="B1759" depart="25410" from="-48259161#2" to="571387195#2" type="B_bus" />
    <trip id="B1770" depart="25411" from="90972280#3" to="-79537449#8" type="B_bus" />
    <trip id="B1794" depart="25414" from="90972272#9" to="91399066#3" type="B_bus" />
    <trip id="B1823" depart="25417" from="79536294" to="-79537314#1" type="B_bus" />
    <trip id="B1824" depart="25418" from="74740744#5" to="824644535#1" type="B_bus" />
    <trip id="B1848" depart="25422" from="-78046905#1" to="-247540439#8" type="B_bus" />
    <trip id="B1868" depart="25424" from="-76503800" to="88750499#1" type="B_bus" />
    <trip id="B1869" depart="25425" from="435398047#1" to="-102150859#0" type="B_bus" />
    <trip id="B1881" depart="25429" from="-79536112#4" to="-91859818#1" type="B_bus" />
    <trip id="B1921" depart="25436" from="-798955215#1" to="107286417#0" type="B_bus" />
    <trip id="B1928" depart="25438" from="48136192#1" to="-78335736#1" type="B_bus" />
    <trip id="B1932" depart="25439" from="821658037" to="-297923435#10" type="B_bus" />
    <trip id="B2009" depart="25442" from="79091995#0" to="78335863#4" type="B_bus" />
    <trip id="B2013" depart="25443" from="821244986#0" to="1007215144" type="B_bus" />
    <trip id="B2032" depart="25446" from="-88750521#3" to="-822308582#0" type="B_bus" />
    <trip id="B2050" depart="25449" from="-79092036#2" to="-1001723672" type="B_bus" />
    <trip id="B2054" depart="25450" from="297923440#1" to="79091857#1" type="B_bus" />
    <trip id="B2068" depart="25451" from="79092099#5" to="79092028#3" type="B_bus" />
    <trip id="B2081" depart="25453" from="821939992#0" to="-79536767#6" type="B_bus" />
    <trip id="B2135" depart="25456" from="76391866#9" to="247549491#1" type="B_bus" />
    <trip id="B2164" depart="25458" from="247462319#5" to="91759956#0" type="B_bus" />
    <trip id="B2179" depart="25461" from="247462327#0" to="-107286280#1" type="B_bus" />
    <trip id="B2183" depart="25463" from="48268326#1" to="-96319767#1" type="B_bus" />
    <trip id="B2184" depart="25464" from="-735027521#2" to="79091859#1" type="B_bus" />
    <trip id="B2220" depart="25467" from="-78518732" to="821906529" type="B_bus" />
    <trip id="B2229" depart="25468" from="-627284436#1" to="-48375938#0" type="B_bus" />
    <trip id="B2259" depart="25471" from="79537043#2" to="-572024632#0" type="B_bus" />
    <trip id="B2263" depart="25472" from="633072644#2" to="445512536#20-AddedOnRampEdge" type="B_bus" />
    <trip id="B2314" depart="25473" from="-79537346#4" to="79091811#0" type="B_bus" />
    <trip id="B2315" depart="25474" from="48398804#10" to="-372926771#3" type="B_bus" />
    <trip id="B2340" depart="25477" from="824637177" to="-48268326#4" type="B_bus" />
    <trip id="B2346" depart="25480" from="107286371#3" to="-626983747#4" type="B_bus" />
    <trip id="B2347" depart="25481" from="-247462312#4" to="79536833#1" type="B_bus" />
    <trip id="B2381" depart="25482" from="79536570#1" to="572115255" type="B_bus" />
    <trip id="B2389" depart="25483" from="-79091911#6" to="-79535929#0" type="B_bus" />
    <trip id="B2432" depart="25489" from="108333887" to="79537033" type="B_bus" />
    <trip id="B2453" depart="25491" from="-571298356#1" to="176539406#15" type="B_bus" />
    <trip id="B2467" depart="25493" from="108452874" to="79711727#2" type="B_bus" />
    <trip id="B2506" depart="25498" from="-571372352" to="79537473" type="B_bus" />
    <trip id="B2534" depart="25500" from="79091924#0" to="78518791" type="B_bus" />
    <trip id="B2548" depart="25501" from="77842360#0" to="-572102376#1" type="B_bus" />
    <trip id="B2565" depart="25504" from="78335847#14" to="-79537183#5" type="B_bus" />
    <trip id="B2568" depart="25505" from="107286379" to="-572027724#0" type="B_bus" />
    <trip id="B2625" depart="25511" from="-824632639" to="48359763#1" type="B_bus" />
    <trip id="B2633" depart="25512" from="247350784#1" to="-78518743#1" type="B_bus" />
    <trip id="B2634" depart="25513" from="-824671960" to="824638100#1" type="B_bus" />
    <trip id="B2637" depart="25514" from="-571833966" to="-247549499#2" type="B_bus" />
    <trip id="B2644" depart="25515" from="-78046858#6" to="391060082#0" type="B_bus" />
    <trip id="B2651" depart="25516" from="91859806" to="48562999#3" type="B_bus" />
    <trip id="B2652" depart="25517" from="78335847#4" to="-571368906#1" type="B_bus" />
    <trip id="B2679" depart="25520" from="48981808#0" to="-633036941#6" type="B_bus" />
    <trip id="B2681" depart="25521" from="-79536146#2" to="78335901#0" type="B_bus" />
    <trip id="B2682" depart="25522" from="247462401#3" to="79536407#0" type="B_bus" />
    <trip id="B2705" depart="25525" from="-48562222#7" to="74434443" type="B_bus" />
    <trip id="B2734" depart="25528" from="824648945#0" to="571432848" type="B_bus" />
    <trip id="B2750" depart="25530" from="-1005479959" to="88750479#5" type="B_bus" />
    <trip id="B2764" depart="25532" from="79091778#2" to="-572146629#1" type="B_bus" />
    <trip id="B2771" depart="25533" from="-247478978#1" to="79536161#1" type="B_bus" />
    <trip id="B2786" depart="25534" from="79536302#1" to="-79091961#0" type="B_bus" />
    <trip id="B2811" depart="25536" from="79535889#1" to="-824623877#1" type="B_bus" />
    <trip id="B2812" depart="25537" from="-1005501457#1" to="-79535789#3" type="B_bus" />
    <trip id="B2817" depart="25538" from="654330812#1" to="-79536950#3" type="B_bus" />
    <trip id="B2840" depart="25540" from="572102641#1" to="91759956#7" type="B_bus" />
    <trip id="B2883" depart="25543" from="821883640#0" to="-571291961#0" type="B_bus" />
    <trip id="B2893" depart="25544" from="-821969044#0" to="-79536734#3" type="B_bus" />
    <trip id="B2915" depart="25546" from="583098262#1" to="102150859#1" type="B_bus" />
    <trip id="B2935" depart="25549" from="436179698#1" to="-78046806#7" type="B_bus" />
    <trip id="B3031" depart="25557" from="79535919#1" to="-345743071#0" type="B_bus" />
    <trip id="B3042" depart="25558" from="87973787#15" to="88520196#11" type="B_bus" />
    <trip id="B3058" depart="25560" from="-571385479" to="-571285779#1" type="B_bus" />
    <trip id="B3059" depart="25561" from="-572014986#1" to="79092100#0" type="B_bus" />
    <trip id="B3081" depart="25562" from="-79536570#2" to="79536209#2" type="B_bus" />
    <trip id="B3145" depart="25565" from="247462312#3" to="-79091849#0" type="B_bus" />
    <trip id="B3147" depart="25566" from="-79537405#1" to="79536567#0" type="B_bus" />
    <trip id="B3155" depart="25569" from="79091832#3" to="247478978#3" type="B_bus" />
    <trip id="B3158" depart="25570" from="107286289#9" to="48562548#3" type="B_bus" />
    <trip id="B3186" depart="25572" from="88527339#0" to="824655142#2" type="B_bus" />
    <trip id="B3190" depart="25573" from="48562548#4" to="-92022543#1" type="B_bus" />
    <trip id="B3208" depart="25575" from="79536574#3" to="-571388684#5" type="B_bus" />
    <trip id="B3289" depart="25581" from="821911214" to="-821645302" type="B_bus" />
    <trip id="B3303" depart="25585" from="-77767454#0" to="391058624#0" type="B_bus" />
    <trip id="B3348" depart="25588" from="-571390030#2" to="821970511#5" type="B_bus" />
    <trip id="B3391" depart="25595" from="91859835" to="79537489#0" type="B_bus" />
    <trip id="B3404" depart="25598" from="-79536934#1" to="-79091652#5" type="B_bus" />
    <trip id="B3410" depart="25599" from="78518713" to="893394226#0" type="B_bus" />
    <trip id="B3424" depart="25600" from="-247536000#3" to="108333857#4" type="B_bus" />
    <trip id="B3445" depart="25602" from="-96319778#6" to="79535785#3" type="B_bus" />
    <trip id="B3458" depart="25604" from="88370696#1" to="-48135804#0" type="B_bus" />
    <trip id="B3467" depart="25605" from="48136202#4" to="-80175356#0" type="B_bus" />
    <trip id="B3473" depart="25606" from="79536024#0" to="73569155#0" type="B_bus" />
    <trip id="B3480" depart="25607" from="-79536829" to="-48399847#0" type="B_bus" />
    <trip id="B3512" depart="25610" from="79536792#6" to="-580597469#3" type="B_bus" />
    <trip id="B3528" depart="25612" from="247478989#3" to="-571390030#0" type="B_bus" />
    <trip id="B3530" depart="25613" from="-98356943#2" to="48981800#2" type="B_bus" />
    <trip id="B3553" depart="25615" from="-79535699#0" to="78518805#3" type="B_bus" />
    <trip id="B3556" depart="25617" from="-894445546#0" to="-247462312#1" type="B_bus" />
    <trip id="B3581" depart="25618" from="-915729880#2" to="-440420823" type="B_bus" />
    <trip id="B3596" depart="25620" from="-79537350" to="-96319778#1" type="B_bus" />
    <trip id="B3609" depart="25622" from="76391866#2" to="107286278#1" type="B_bus" />
    <trip id="B3626" depart="25623" from="247535966#9" to="-824670783#1" type="B_bus" />
    <trip id="B3643" depart="25624" from="572153543#1" to="87973787#22" type="B_bus" />
    <trip id="B3666" depart="25627" from="571754298#0" to="49157542#3" type="B_bus" />
    <trip id="B3687" depart="25628" from="1005180357#0" to="79091746#2" type="B_bus" />
    <trip id="B3695" depart="25630" from="-824631910" to="-102150870" type="B_bus" />
    <trip id="B3708" depart="25632" from="-180649339" to="-79091949#1" type="B_bus" />
    <trip id="B3714" depart="25633" from="-78046911#1" to="95412522#6" type="B_bus" />
    <trip id="B3789" depart="25639" from="79536116#0" to="-821527099" type="B_bus" />
    <trip id="B3820" depart="25643" from="247462336#1" to="-247549480#5" type="B_bus" />
    <trip id="B3821" depart="25644" from="88750489#3" to="821216342#5" type="B_bus" />
    <trip id="B3833" depart="25645" from="-79536930#7" to="821657154#2" type="B_bus" />
    <trip id="B3855" depart="25649" from="79537480#1" to="-98356941#5" type="B_bus" />
    <trip id="B3856" depart="25650" from="-107286282#1" to="-571373966#0" type="B_bus" />
    <trip id="B3882" depart="25653" from="79536925#5" to="-78046855#0" type="B_bus" />
    <trip id="B3932" depart="25657" from="-48268326#9" to="571301430#1" type="B_bus" />
    <trip id="B3950" depart="25658" from="142724435" to="232848628#8" type="B_bus" />
    <trip id="B3975" depart="25660" from="79537173" to="-107286301#0" type="B_bus" />
    <trip id="B3977" depart="25661" from="824617658#0" to="-98356943#4" type="B_bus" />
    <trip id="B3997" depart="25663" from="108333876#2" to="79536767#7" type="B_bus" />
    <trip id="B4001" depart="25664" from="-91859818#2" to="572145739#2" type="B_bus" />
    <trip id="B4019" depart="25666" from="-822235825" to="-821950258#1" type="B_bus" />
    <trip id="B4036" depart="25668" from="824650901#2" to="932018780#13" type="B_bus" />
    <trip id="B4041" depart="25669" from="79537496#0" to="375276880#3" type="B_bus" />
    <trip id="B4061" depart="25671" from="79091783#3" to="-894445546#1" type="B_bus" />
    <trip id="B4078" depart="25673" from="88370682" to="79537229#7" type="B_bus" />
    <trip id="B4080" depart="25674" from="530397331" to="-626983748" type="B_bus" />
    <trip id="B4081" depart="25675" from="74842971#0" to="79536453#1" type="B_bus" />
    <trip id="B4086" depart="25676" from="79536883#2" to="268533820#7" type="B_bus" />
    <trip id="B4112" depart="25679" from="-572115256#0" to="88528638#3" type="B_bus" />
    <trip id="B4131" depart="25681" from="48395929#1" to="-79536880#0" type="B_bus" />
    <trip id="B4156" depart="25684" from="79535889#4" to="74918639#7" type="B_bus" />
    <trip id="B4162" depart="25685" from="-79092013#0" to="-78518739#0" type="B_bus" />
    <trip id="B4163" depart="25686" from="-79537321#1" to="79537149#0" type="B_bus" />
    <trip id="B4191" depart="25688" from="78335818#0" to="821216342#1" type="B_bus" />
    <trip id="B4193" depart="25689" from="821941554" to="-78046873#1" type="B_bus" />
    <trip id="B4198" depart="25691" from="247462326#3" to="-571811910#0" type="B_bus" />
    <trip id="B4209" depart="25693" from="821541541#1" to="79536767#2" type="B_bus" />
    <trip id="B4218" depart="25695" from="1005545812" to="391058621#5" type="B_bus" />
    <trip id="B4239" depart="25697" from="-79537160#2" to="-79091869#2" type="B_bus" />
    <trip id="B4252" depart="25698" from="-571386400#0" to="247549491#0" type="B_bus" />
    <trip id="B4259" depart="25700" from="-821970511#4" to="108333920#1" type="B_bus" />
    <trip id="B4277" depart="25701" from="79091800#0" to="108333920#4" type="B_bus" />
    <trip id="B4304" depart="25704" from="-782472048" to="88520181" type="B_bus" />
    <trip id="B4327" depart="25707" from="-247540439#11" to="107286315#1" type="B_bus" />
    <trip id="B4332" depart="25708" from="79536149#0" to="78335834#0" type="B_bus" />
    <trip id="B4349" depart="25710" from="79536086#0" to="632000857" type="B_bus" />
    <trip id="B4387" depart="25714" from="-572102642#0" to="572146505" type="B_bus" />
    <trip id="B4411" depart="25715" from="-78046853#0" to="48135815#0" type="B_bus" />
    <trip id="B4416" depart="25716" from="824600074" to="762008453#3" type="B_bus" />
    <trip id="B4439" depart="25718" from="96319778#4" to="-107286346#2" type="B_bus" />
    <trip id="B4475" depart="25720" from="48259123#0" to="79537346#7" type="B_bus" />
    <trip id="B4477" depart="25721" from="-79711761" to="628377094" type="B_bus" />
    <trip id="B4493" depart="25722" from="-88750486#2" to="-79091682#4" type="B_bus" />
    <trip id="B4496" depart="25723" from="-48514961#27" to="1005776890#0" type="B_bus" />
    <trip id="B4505" depart="25724" from="633036933#0" to="79535785#0" type="B_bus" />
    <trip id="B4516" depart="25726" from="247536020#1" to="79536574#3" type="B_bus" />
    <trip id="B4517" depart="25727" from="-572102642#0" to="821236272" type="B_bus" />
    <trip id="B4529" depart="25728" from="79537525#3" to="1005153833" type="B_bus" />
    <trip id="B4553" depart="25732" from="572152394#5" to="-821890038#0" type="B_bus" />
    <trip id="B4573" depart="25734" from="79535900#2" to="571374361#1" type="B_bus" />
    <trip id="B4580" depart="25736" from="79711747#0" to="-571369182#1" type="B_bus" />
    <trip id="B4606" depart="25740" from="-49157410" to="654330812#2" type="B_bus" />
    <trip id="B4618" depart="25741" from="79091823#4" to="-102150867#1" type="B_bus" />
    <trip id="B4635" depart="25742" from="297923435#2" to="108333965#6" type="B_bus" />
    <trip id="B4650" depart="25744" from="430660463#10" to="-79536066#1" type="B_bus" />
    <trip id="B4657" depart="25745" from="-530397323#2" to="-79537176#7" type="B_bus" />
    <trip id="B4664" depart="25746" from="-824644535#8" to="-821580497" type="B_bus" />
    <trip id="B4692" depart="25749" from="571426122#6" to="571396195#1" type="B_bus" />
    <trip id="B4769" depart="25758" from="824300377#7" to="-79091941#1" type="B_bus" />
    <trip id="B4777" depart="25760" from="-79092048#0" to="821939995#4" type="B_bus" />
    <trip id="B4778" depart="25761" from="-78335741#2" to="-108333909#0" type="B_bus" />
    <trip id="B4779" depart="25762" from="73569157#0" to="216293267#6" type="B_bus" />
    <trip id="B4786" depart="25763" from="1005494611#1" to="-79537480#2" type="B_bus" />
    <trip id="B4795" depart="25765" from="788587786#4" to="-937918433#1" type="B_bus" />
    <trip id="B4797" depart="25766" from="821515472#3" to="-79536759#0" type="B_bus" />
    <trip id="B4801" depart="25767" from="-48377230#5" to="372926771#2" type="B_bus" />
    <trip id="B4806" depart="25769" from="821959405" to="-572152396" type="B_bus" />
    <trip id="B4813" depart="25770" from="-79535789#3" to="-571281870#0" type="B_bus" />
    <trip id="B4888" depart="25774" from="-902360486#0" to="-1007399631#0" type="B_bus" />
    <trip id="B4900" depart="25776" from="76507749#2" to="79537529" type="B_bus" />
    <trip id="B4948" depart="25779" from="-632000857" to="-48562548#1" type="B_bus" />
    <trip id="B4953" depart="25780" from="821959404#0" to="-78046911#1" type="B_bus" />
    <trip id="B4958" depart="25781" from="79092013#1" to="571394563#2" type="B_bus" />
    <trip id="B4993" depart="25784" from="-79536206#0" to="-108333937#14" type="B_bus" />
    <trip id="B5009" depart="25786" from="-79537449#2" to="79537507" type="B_bus" />
    <trip id="B5026" depart="25789" from="79091648#6" to="79536736#4" type="B_bus" />
    <trip id="B5041" depart="25790" from="-247478954#1" to="821963513#0" type="B_bus" />
    <trip id="B5066" depart="25792" from="79091724#1" to="79091849#3" type="B_bus" />
    <trip id="B5069" depart="25793" from="78046747#0" to="79711780#0" type="B_bus" />
    <trip id="B5105" depart="25796" from="247557153#1" to="-79535831#0" type="B_bus" />
    <trip id="B5107" depart="25797" from="79536782#2" to="107286299" type="B_bus" />
    <trip id="B5115" depart="25799" from="823984316#0" to="-108333857#0" type="B_bus" />
    <trip id="B5121" depart="25800" from="79091704#1" to="-89280766#3" type="B_bus" />
    <trip id="B5124" depart="25801" from="-79091869#0" to="375276831#2" type="B_bus" />
    <trip id="B5140" depart="25802" from="1002492303#2" to="48563009#7" type="B_bus" />
    <trip id="B5145" depart="25803" from="-79536925#0" to="-821580501#2" type="B_bus" />
    <trip id="B5175" depart="25809" from="-79537240" to="-824196752#0" type="B_bus" />
    <trip id="B5191" depart="25811" from="79537093#9" to="79092005#2" type="B_bus" />
    <trip id="B5197" depart="25812" from="48376977#2" to="79091816#1" type="B_bus" />
    <trip id="B5201" depart="25813" from="107286384" to="108333882#1" type="B_bus" />
    <trip id="B5217" depart="25815" from="88370688" to="78046810#6" type="B_bus" />
    <trip id="B5241" depart="25817" from="247462387#5" to="79536574#3" type="B_bus" />
    <trip id="B5288" depart="25822" from="-48375935#0" to="90972331" type="B_bus" />
    <trip id="B5372" depart="25826" from="88520161#3" to="79537160#1" type="B_bus" />
    <trip id="B5410" depart="25829" from="297382759#5" to="848972268" type="B_bus" />
    <trip id="B5412" depart="25830" from="74920160#4" to="-247536020#11" type="B_bus" />
    <trip id="B5434" depart="25831" from="-798416902#1" to="-79092016" type="B_bus" />
    <trip id="B5469" depart="25837" from="821961697#2" to="376279911#6" type="B_bus" />
    <trip id="B5480" depart="25838" from="108452875#0" to="-78046821#1" type="B_bus" />
    <trip id="B5491" depart="25841" from="78335865#0" to="79092105#4" type="B_bus" />
    <trip id="B5501" depart="25842" from="-821908860#1" to="79536930#1" type="B_bus" />
    <trip id="B5507" depart="25844" from="1005747018#0" to="-79537229#3" type="B_bus" />
    <trip id="B5553" depart="25845" from="91859862#4" to="-376279911#4" type="B_bus" />
    <trip id="B5561" depart="25847" from="268533820#0" to="79711720#3" type="B_bus" />
    <trip id="B5571" depart="25850" from="-79536342#1" to="571377955#2" type="B_bus" />
    <trip id="B5575" depart="25851" from="-79536930#6" to="79091654#2" type="B_bus" />
    <trip id="B5589" depart="25852" from="-797703537" to="78046820#2" type="B_bus" />
    <trip id="B5608" depart="25855" from="-88370693#3" to="79711790#1" type="B_bus" />
    <trip id="B5634" depart="25856" from="79536213#1" to="915729877#1" type="B_bus" />
    <trip id="B5648" depart="25858" from="-88750486#6" to="79536905#1" type="B_bus" />
    <trip id="B5675" depart="25859" from="-79537447#1" to="540970676#5" type="B_bus" />
    <trip id="B5686" depart="25860" from="-821926012" to="-821236272" type="B_bus" />
    <trip id="B5696" depart="25862" from="-821637863" to="-247536059#0" type="B_bus" />
    <trip id="B5701" depart="25863" from="-79536024#4" to="79091875#5" type="B_bus" />
    <trip id="B5730" depart="25864" from="88520161#6" to="247549491#2" type="B_bus" />
    <trip id="B5741" depart="25865" from="571297627#1" to="48870204#2" type="B_bus" />
    <trip id="B5749" depart="25868" from="189083696#2" to="79711735" type="B_bus" />
    <trip id="B5765" depart="25870" from="-530397322#0" to="-79536007#1" type="B_bus" />
    <trip id="B5779" depart="25873" from="-79537294#0" to="-79091734#0" type="B_bus" />
    <trip id="B5792" depart="25875" from="79091877#2" to="-107286415#2" type="B_bus" />
    <trip id="B5802" depart="25878" from="48287809#8" to="91758562#1" type="B_bus" />
    <trip id="B5831" depart="25879" from="1005561391#0" to="-79536792#4" type="B_bus" />
    <trip id="B5838" depart="25882" from="107286410#2" to="1002492303#6" type="B_bus" />
    <trip id="B5855" depart="25886" from="-436441827#1" to="633036929#2" type="B_bus" />