<routes xmlns:xsi="http://www.w3.org/2001/XMLSchema-instance" xsi:noNamespaceSchemaLocation="http://sumo.dlr.de/xsd/routes_file.xsd">
    <vType id="M_motorcycle" vClass="motorcycle" />
    <trip id="M8" depart="25200" from="-79091826#2" to="571281131#8" type="M_motorcycle" />
    <trip id="M11" depart="25201" from="-821908860#6" to="-751783837#0" type="M_motorcycle" />
    <trip id="M26" depart="25204" from="-79536342#0" to="824676188#1" type="M_motorcycle" />
    <trip id="M62" depart="25208" from="-1002494232#1" to="-821913473" type="M_motorcycle" />
    <trip id="M71" depart="25209" from="-79536287" to="821504315" type="M_motorcycle" />
    <trip id="M83" depart="25210" from="-79092017#3" to="78046748#1" type="M_motorcycle" />
    <trip id="M108" depart="25212" from="48205263" to="79091706#1" type="M_motorcycle" />
    <trip id="M117" depart="25213" from="-79091988#1" to="-571386792#1" type="M_motorcycle" />
    <trip id="M120" depart="25214" from="1002492303#7" to="530397330" type="M_motorcycle" />
    <trip id="M129" depart="25215" from="-79536302#0" to="824662366#1" type="M_motorcycle" />
    <trip id="M140" depart="25217" from="788905222#0" to="-79091765#0" type="M_motorcycle" />
    <trip id="M152" depart="25218" from="-572145001" to="-571754298#1" type="M_motorcycle" />
    <trip id="M188" depart="25221" from="74740744#0" to="-821950258#0" type="M_motorcycle" />
    <trip id="M196" depart="25222" from="-79537358#1" to="48357657#20" type="M_motorcycle" />
    <trip id="M209" depart="25224" from="79537354#2" to="-247555570#4" type="M_motorcycle" />
    <trip id="M225" depart="25227" from="821944352#0" to="79091924#0" type="M_motorcycle" />
    <trip id="M228" depart="25228" from="79092033#2" to="436179699#0" type="M_motorcycle" />
    <trip id="M256" depart="25231" from="79091991#1" to="-88750499#14" type="M_motorcycle" />
    <trip id="M282" depart="25235" from="79537352" to="79536905#1" type="M_motorcycle" />
    <trip id="M287" depart="25236" from="-79536418#6" to="79536653#0" type="M_motorcycle" />
    <trip id="M302" depart="25240" from="78046881#5" to="633036941#15" type="M_motorcycle" />
    <trip id="M324" depart="25242" from="176539406#3" to="110678702#1" type="M_motorcycle" />
    <trip id="M377" depart="25248" from="935787571#2" to="74918635#15" type="M_motorcycle" />
    <trip id="M384" depart="25249" from="-571378029" to="915729880#2" type="M_motorcycle" />
    <trip id="M402" depart="25251" from="247478994#1" to="-627284441#2" type="M_motorcycle" />
    <trip id="M413" depart="25252" from="-111796785#3" to="366015251#7" type="M_motorcycle" />
    <trip id="M443" depart="25255" from="-627284437#3" to="111796790#3" type="M_motorcycle" />
    <trip id="M469" depart="25258" from="79536925#5" to="-79536409#1" type="M_motorcycle" />
    <trip id="M487" depart="25261" from="-79537421#1" to="1006140971" type="M_motorcycle" />
    <trip id="M496" depart="25263" from="247478991#3" to="1005841127" type="M_motorcycle" />
    <trip id="M504" depart="25264" from="79537323#0" to="247462308" type="M_motorcycle" />
    <trip id="M511" depart="25265" from="798934038#0" to="-821944352#2" type="M_motorcycle" />
    <trip id="M513" depart="25266" from="-1005246143" to="79711774" type="M_motorcycle" />
    <trip id="M563" depart="25270" from="824648946#2" to="79537093#16" type="M_motorcycle" />
    <trip id="M572" depart="25271" from="-824634543" to="79091727#1" type="M_motorcycle" />
    <trip id="M590" depart="25272" from="79537014" to="79536614#3" type="M_motorcycle" />
    <trip id="M601" depart="25276" from="486672368" to="439248074" type="M_motorcycle" />
    <trip id="M606" depart="25277" from="822231291#0" to="-824631904" type="M_motorcycle" />
    <trip id="M642" depart="25279" from="79091682#6" to="74917380#2" type="M_motorcycle" />
    <trip id="M646" depart="25280" from="91393348#3" to="78335875" type="M_motorcycle" />
    <trip id="M651" depart="25281" from="79536886#1" to="79091870#1" type="M_motorcycle" />
    <trip id="M655" depart="25282" from="-78046862#1" to="-79091882#0" type="M_motorcycle" />
    <trip id="M660" depart="25283" from="79537043#1" to="821883643" type="M_motorcycle" />
    <trip id="M665" depart="25285" from="79536457#2" to="-78046821#4" type="M_motorcycle" />
    <trip id="M694" depart="25288" from="-572034806#1" to="78518805#2" type="M_motorcycle" />
    <trip id="M712" depart="25289" from="-87973787#12" to="247478998#3" type="M_motorcycle" />
    <trip id="M723" depart="25290" from="-247535994" to="79535904" type="M_motorcycle" />
    <trip id="M758" depart="25292" from="48398782#1" to="48135803#0" type="M_motorcycle" />
    <trip id="M764" depart="25293" from="107286406#2" to="96379306#0" type="M_motorcycle" />
    <trip id="M791" depart="25294" from="-247478965#2" to="-571423421#1" type="M_motorcycle" />
    <trip id="M793" depart="25295" from="-821243396" to="79091640#0" type="M_motorcycle" />
    <trip id="M800" depart="25297" from="87973787#12" to="-74433855#2" type="M_motorcycle" />
    <trip id="M834" depart="25299" from="430667413" to="79537457#3" type="M_motorcycle" />
    <trip id="M845" depart="25300" from="835899382#0" to="79092007" type="M_motorcycle" />
    <trip id="M857" depart="25301" from="-824631901#5" to="78046813#1" type="M_motorcycle" />
    <trip id="M863" depart="25302" from="48399843#16" to="79091726#7" type="M_motorcycle" />
    <trip id="M870" depart="25304" from="-572159417" to="78335809#2" type="M_motorcycle" />
    <trip id="M883" depart="25306" from="-79091870#0" to="915729877#2" type="M_motorcycle" />
    <trip id="M899" depart="25308" from="-79092102#0" to="78046784#6" type="M_motorcycle" />
    <trip id="M909" depart="25309" from="822251322" to="-48268326#2" type="M_motorcycle" />
    <trip id="M927" depart="25311" from="79536093#0" to="48562991#0" type="M_motorcycle" />
    <trip id="M947" depart="25313" from="-96319778#7" to="48375933#0" type="M_motorcycle" />
    <trip id="M956" depart="25314" from="-572150039#1" to="-821941555#3" type="M_motorcycle" />
    <trip id="M957" depart="25315" from="360913622#0" to="-571377955#3" type="M_motorcycle" />
    <trip id="M990" depart="25318" from="-48981800#0" to="-108452856" type="M_motorcycle" />
    <trip id="M992" depart="25319" from="-247462345#1" to="79091882#1" type="M_motorcycle" />
    <trip id="M1056" depart="25327" from="-102150869#0" to="375278864#1" type="M_motorcycle" />
    <trip id="M1066" depart="25328" from="-48514961#13" to="-631993359#1" type="M_motorcycle" />
    <trip id="M1086" depart="25331" from="-108333965#13" to="824648947#0" type="M_motorcycle" />
    <trip id="M1090" depart="25332" from="-297923435#1" to="-78046806#5" type="M_motorcycle" />
    <trip id="M1103" depart="25333" from="87804371" to="108333877#0" type="M_motorcycle" />
    <trip id="M1111" depart="25335" from="-79537528#4" to="-824653220#1" type="M_motorcycle" />
    <trip id="M1161" depart="25339" from="626983747#3" to="-232897250#4" type="M_motorcycle" />
    <trip id="M1162" depart="25340" from="91908572#9" to="78046855#13" type="M_motorcycle" />
    <trip id="M1175" depart="25341" from="108333963#1" to="-79091812#1" type="M_motorcycle" />
    <trip id="M1190" depart="25342" from="78335847#21" to="-79091806#0" type="M_motorcycle" />
    <trip id="M1226" depart="25347" from="79536782#1" to="-180648648#3" type="M_motorcycle" />
    <trip id="M1235" depart="25348" from="48563010#5" to="-824633820#3" type="M_motorcycle" />
    <trip id="M1240" depart="25349" from="-79536767#4" to="48236011" type="M_motorcycle" />
    <trip id="M1250" depart="25350" from="79091994" to="78046845#0" type="M_motorcycle" />
    <trip id="M1255" depart="25351" from="295263616#0" to="-79537026#2" type="M_motorcycle" />
    <trip id="M1256" depart="25352" from="824678517#1" to="-87972295#1" type="M_motorcycle" />
    <trip id="M1272" depart="25355" from="89280520#5" to="-79091756#0" type="M_motorcycle" />
    <trip id="M1321" depart="25358" from="79536046#0" to="376279911#0" type="M_motorcycle" />
    <trip id="M1323" depart="25359" from="-96319778#1" to="78518712#0" type="M_motorcycle" />
    <trip id="M1345" depart="25361" from="-247536001#0" to="79091655#2" type="M_motorcycle" />
    <trip id="M1371" depart="25364" from="247535966#3" to="79535856#3" type="M_motorcycle" />
    <trip id="M1406" depart="25366" from="-822235824#3" to="419628722#3" type="M_motorcycle" />
    <trip id="M1412" depart="25368" from="-572097394" to="-107286300#0" type="M_motorcycle" />
    <trip id="M1424" depart="25370" from="79536767#7" to="-96319769#1" type="M_motorcycle" />
    <trip id="M1453" depart="25371" from="79536392#2" to="78335865#8" type="M_motorcycle" />
    <trip id="M1456" depart="25372" from="48268653#3" to="48514959#5" type="M_motorcycle" />
    <trip id="M1461" depart="25374" from="-79091813#1" to="445512536#7" type="M_motorcycle" />
    <trip id="M1484" depart="25375" from="540970679" to="824633752" type="M_motorcycle" />
    <trip id="M1520" depart="25378" from="73569161" to="571379652#0" type="M_motorcycle" />
    <trip id="M1550" depart="25380" from="-79536086#1" to="823970948#3" type="M_motorcycle" />
    <trip id="M1561" depart="25382" from="-79536883#3" to="48136203#3" type="M_motorcycle" />
    <trip id="M1592" depart="25384" from="-824638087#1" to="571343989#1" type="M_motorcycle" />
    <trip id="M1599" depart="25385" from="90972281#3" to="79711747#3" type="M_motorcycle" />
    <trip id="M1604" depart="25386" from="823976214#0" to="633072643#0" type="M_motorcycle" />
    <trip id="M1611" depart="25387" from="78046716#4" to="79536950#0" type="M_motorcycle" />
    <trip id="M1650" depart="25392" from="-572024632#0" to="-79091736#3" type="M_motorcycle" />
    <trip id="M1662" depart="25394" from="90972288#0" to="-90972281#3" type="M_motorcycle" />
    <trip id="M1678" depart="25396" from="-908384243" to="-79092042#4" type="M_motorcycle" />
    <trip id="M1682" depart="25397" from="627284435#9" to="-111796791#2" type="M_motorcycle" />
    <trip id="M1691" depart="25398" from="-79537358#4" to="762008453#2" type="M_motorcycle" />
    <trip id="M1703" depart="25401" from="-1005244643" to="78046806#11" type="M_motorcycle" />
    <trip id="M1734" depart="25402" from="-92023674#1" to="-247462319#5" type="M_motorcycle" />
    <trip id="M1746" depart="25405" from="580597469#4" to="-76503798#3" type="M_motorcycle" />
    <trip id="M1758" depart="25407" from="48235658#2" to="-1001615017#1" type="M_motorcycle" />
    <trip id="M1772" depart="25408" from="-247462321#0" to="-78046812#1" type="M_motorcycle" />
    <trip id="M1777" depart="25409" from="108333971#3" to="79536031" type="M_motorcycle" />
    <trip id="M1816" depart="25410" from="79537104#6" to="78335809#4" type="M_motorcycle" />
    <trip id="M1820" depart="25411" from="79091813#1" to="819578582#3" type="M_motorcycle" />
    <trip id="M1822" depart="25412" from="-79092015#2" to="79536112#2" type="M_motorcycle" />
    <trip id="M1830" depart="25413" from="79536912" to="823984316#0" type="M_motorcycle" />
    <trip id="M1843" depart="25416" from="-247462375#1" to="824658520#1" type="M_motorcycle" />
    <trip id="M1849" depart="25418" from="247545773#0" to="107286298#1" type="M_motorcycle" />
    <trip id="M1853" depart="25419" from="-79091812#1" to="79091987#6" type="M_motorcycle" />
    <trip id="M1910" depart="25427" from="824659715#1" to="96321118#1" type="M_motorcycle" />
    <trip id="M1911" depart="25428" from="111796790#6" to="48375935#1" type="M_motorcycle" />
    <trip id="M1924" depart="25429" from="107286303#7" to="79537314#2" type="M_motorcycle" />
    <trip id="M1931" depart="25431" from="435398056" to="-79536638" type="M_motorcycle" />
    <trip id="M1942" depart="25433" from="155343013#0" to="405396382" type="M_motorcycle" />
    <trip id="M1951" depart="25434" from="-79091813#1" to="247549491#3" type="M_motorcycle" />
    <trip id="M1961" depart="25436" from="633036930#4" to="-824678522#0" type="M_motorcycle" />
    <trip id="M1980" depart="25439" from="-247478974#2" to="-79536436#1" type="M_motorcycle" />
    <trip id="M1983" depart="25440" from="-107286346#6" to="79091716#2" type="M_motorcycle" />
    <trip id="M1990" depart="25441" from="670025444#1" to="-79536654#1" type="M_motorcycle" />
    <trip id="M1992" depart="25442" from="108333920#8" to="571287605" type="M_motorcycle" />
    <trip id="M2006" depart="25445" from="-79091928#1" to="79536470#1" type="M_motorcycle" />
    <trip id="M2035" depart="25451" from="90972280#4-AddedOnRampEdge" to="-1005778647#2" type="M_motorcycle" />
    <trip id="M2040" depart="25452" from="-824670850#1" to="92022549#1" type="M_motorcycle" />
    <trip id="M2041" depart="25453" from="571377484#0" to="436172544" type="M_motorcycle" />
    <trip id="M2044" depart="25454" from="572152394#6" to="108452863#6" type="M_motorcycle" />
    <trip id="M2096" depart="25457" from="824366353#1" to="-79537133" type="M_motorcycle" />
    <trip id="M2112" depart="25458" from="-79536734#5" to="-78335809#10" type="M_motorcycle" />
    <trip id="M2114" depart="25459" from="-79091924#3" to="-49156614#7" type="M_motorcycle" />
    <trip id="M2121" depart="25460" from="297923435#12" to="79091722#1" type="M_motorcycle" />
    <trip id="M2123" depart="25461" from="48268365#10" to="48562991#1" type="M_motorcycle" />
    <trip id="M2156" depart="25465" from="79092025" to="-436441832" type="M_motorcycle" />
    <trip id="M2162" depart="25467" from="-108333885" to="76391866#5" type="M_motorcycle" />
    <trip id="M2179" depart="25471" from="247462327#0" to="-107286280#1" type="M_motorcycle" />
    <trip id="M2199" depart="25472" from="79091707#2" to="-79535684#1" type="M_motorcycle" />
    <trip id="M2220" depart="25475" from="-78518732" to="821906529" type="M_motorcycle" />
    <trip id="M2225" depart="25477" from="79536042" to="-107286278#0" type="M_motorcycle" />
    <trip id="M2255" depart="25479" from="247536020#10" to="48376975#0" type="M_motorcycle" />
    <trip id="M2259" depart="25480" from="79537043#2" to="-572024632#0" type="M_motorcycle" />
    <trip id="M2303" depart="25483" from="48205267#1" to="824644031" type="M_motorcycle" />
    <trip id="M2319" depart="25487" from="798934038#2" to="-79092022" type="M_motorcycle" />
    <trip id="M2327" depart="25489" from="107286399" to="571369182#0" type="M_motorcycle" />
    <trip id="M2359" depart="25494" from="-572102381#2" to="78335877#3" type="M_motorcycle" />
    <trip id="M2367" depart="25496" from="688682283#5" to="819578580#3" type="M_motorcycle" />
    <trip id="M2382" depart="25499" from="821508736#1" to="821913472#3" type="M_motorcycle" />
    <trip id="M2391" depart="25500" from="822336456#3" to="-821946961" type="M_motorcycle" />
    <trip id="M2397" depart="25501" from="96321157" to="91760825#1" type="M_motorcycle" />
    <trip id="M2414" depart="25502" from="247540439#6" to="571388362#1" type="M_motorcycle" />
    <trip id="M2416" depart="25504" from="79537431#0" to="247557155#1" type="M_motorcycle" />
    <trip id="M2446" depart="25506" from="-571840894" to="107286282#1" type="M_motorcycle" />
    <trip id="M2449" depart="25508" from="-79091637#1" to="247462308" type="M_motorcycle" />
    <trip id="M2466" depart="25510" from="571426122#1" to="-79536309#0" type="M_motorcycle" />
    <trip id="M2503" depart="25513" from="571296838#2" to="788905220#1" type="M_motorcycle" />
    <trip id="M2543" depart="25517" from="247536044#4" to="-788587785#1" type="M_motorcycle" />
    <trip id="M2555" depart="25518" from="633072647#8" to="-821524258" type="M_motorcycle" />
    <trip id="M2557" depart="25519" from="821908860#4" to="-821900636" type="M_motorcycle" />
    <trip id="M2596" depart="25521" from="-95528305#1" to="572102642#1" type="M_motorcycle" />
    <trip id="M2599" depart="25523" from="79536614#5" to="571291612#0" type="M_motorcycle" />
    <trip id="M2605" depart="25524" from="48981809#1" to="247462383#6" type="M_motorcycle" />
    <trip id="M2606" depart="25525" from="48205254" to="79536901#1" type="M_motorcycle" />
    <trip id="M2614" depart="25526" from="-1001615015" to="-627284434#0" type="M_motorcycle" />
    <trip id="M2632" depart="25527" from="47908288#0" to="76256887#0" type="M_motorcycle" />
    <trip id="M2702" depart="25531" from="88750499#10" to="108333876#4" type="M_motorcycle" />
    <trip id="M2712" depart="25534" from="-107286289#5" to="-48563025#4" type="M_motorcycle" />
    <trip id="M2737" depart="25537" from="-79091812#0" to="633036928#4" type="M_motorcycle" />
    <trip id="M2744" depart="25538" from="-79536328#0" to="78335883#1" type="M_motorcycle" />
    <trip id="M2745" depart="25539" from="821972264#1" to="49156614#1" type="M_motorcycle" />
    <trip id="M2756" depart="25541" from="429966006" to="893436350" type="M_motorcycle" />
    <trip id="M2770" depart="25544" from="96379259" to="-111796790#6" type="M_motorcycle" />
    <trip id="M2771" depart="25545" from="-247478978#1" to="79536161#1" type="M_motorcycle" />
    <trip id="M2772" depart="25546" from="-219798597" to="-571384859#4" type="M_motorcycle" />
    <trip id="M2804" depart="25549" from="79536418#1" to="79535856#3" type="M_motorcycle" />
    <trip id="M2810" depart="25551" from="88528644#1" to="572146504#0" type="M_motorcycle" />
    <trip id="M2844" depart="25557" from="108452867#4" to="-78046879#1" type="M_motorcycle" />
    <trip id="M2846" depart="25558" from="540970696#3" to="79536209#2" type="M_motorcycle" />
    <trip id="M2880" depart="25565" from="-419628716#11" to="821657153#1" type="M_motorcycle" />
    <trip id="M2881" depart="25566" from="79091783#0" to="-247478957#5" type="M_motorcycle" />
    <trip id="M2885" depart="25567" from="-824618445#1" to="-78335718#9" type="M_motorcycle" />
    <trip id="M2895" depart="25569" from="-247535998#1" to="-824600078#1" type="M_motorcycle" />
    <trip id="M2915" depart="25572" from="583098262#1" to="102150859#1" type="M_motorcycle" />
    <trip id="M2941" depart="25576" from="-821656562#0" to="78518805#1" type="M_motorcycle" />
    <trip id="M2942" depart="25577" from="232848628#9" to="-79537384#2" type="M_motorcycle" />
    <trip id="M3005" depart="25579" from="79091928#1" to="48268365#10" type="M_motorcycle" />
    <trip id="M3047" depart="25581" from="-107286303#10" to="-79091925#0" type="M_motorcycle" />
    <trip id="M3052" depart="25582" from="78335873#2" to="-824894667" type="M_motorcycle" />
    <trip id="M3055" depart="25583" from="-821973605#2" to="-88750499#9" type="M_motorcycle" />
    <trip id="M3070" depart="25586" from="247535950#1" to="-530397328#3" type="M_motorcycle" />
    <trip id="M3075" depart="25587" from="91859802#2" to="-247536020#0" type="M_motorcycle" />
    <trip id="M3081" depart="25588" from="-79536570#2" to="79536209#2" type="M_motorcycle" />
    <trip id="M3131" depart="25594" from="48395929#0" to="79536653#2" type="M_motorcycle" />
    <trip id="M3158" depart="25597" from="107286289#9" to="48562548#3" type="M_motorcycle" />
    <trip id="M3163" depart="25599" from="-821217310#1" to="79537093#25" type="M_motorcycle" />
    <trip id="M3176" depart="25601" from="90972274#1" to="247549480#4" type="M_motorcycle" />
    <trip id="M3177" depart="25602" from="-107286368" to="79711797#1" type="M_motorcycle" />
    <trip id="M3179" depart="25603" from="797569048#2" to="821965160#1" type="M_motorcycle" />
    <trip id="M3190" depart="25605" from="48562548#4" to="-92022543#1" type="M_motorcycle" />
    <trip id="M3194" depart="25606" from="107286337#3" to="-79536328#4" type="M_motorcycle" />
    <trip id="M3209" depart="25607" from="797558187" to="79711758" type="M_motorcycle" />
    <trip id="M3223" depart="25608" from="78335806#3" to="375278864#6" type="M_motorcycle" />
    <trip id="M3231" depart="25609" from="-431270284" to="-77767454#0" type="M_motorcycle" />
    <trip id="M3257" depart="25610" from="79537492#0" to="571378494#4" type="M_motorcycle" />
    <trip id="M3258" depart="25611" from="96321145#2" to="-79537183#1" type="M_motorcycle" />
    <trip id="M3276" depart="25612" from="-88528644#0" to="-88370686#0" type="M_motorcycle" />
    <trip id="M3282" depart="25613" from="-572102398#1" to="-571378494#1" type="M_motorcycle" />
    <trip id="M3288" depart="25616" from="-79536220#2" to="-821527098" type="M_motorcycle" />
    <trip id="M3304" depart="25617" from="-79536567#2" to="821920429" type="M_motorcycle" />
    <trip id="M3323" depart="25618" from="-821246159#0" to="-247478965#1" type="M_motorcycle" />
    <trip id="M3350" depart="25620" from="-79537193#5" to="-247462332" type="M_motorcycle" />
    <trip id="M3356" depart="25622" from="247540445#0" to="-571371020" type="M_motorcycle" />
    <trip id="M3371" depart="25623" from="540970676#4" to="247549486#3" type="M_motorcycle" />
    <trip id="M3382" depart="25624" from="-79537358#1" to="247462387#5" type="M_motorcycle" />
    <trip id="M3400" depart="25626" from="821913472#1" to="107286303#3" type="M_motorcycle" />
    <trip id="M3403" depart="25627" from="78335756#2" to="-107286387#1" type="M_motorcycle" />
    <trip id="M3446" depart="25630" from="-79535699#0" to="79536672#1" type="M_motorcycle" />
    <trip id="M3452" depart="25631" from="-79091919#2" to="79536459#0" type="M_motorcycle" />
    <trip id="M3483" depart="25634" from="-108333877#0" to="79536362#25" type="M_motorcycle" />
    <trip id="M3506" depart="25640" from="-824633447" to="445512536#5" type="M_motorcycle" />
    <trip id="M3512" depart="25642" from="79536792#6" to="-580597469#3" type="M_motorcycle" />
    <trip id="M3533" depart="25645" from="79091650" to="571389205" type="M_motorcycle" />
    <trip id="M3541" depart="25647" from="821900637" to="79091854#1" type="M_motorcycle" />
    <trip id="M3543" depart="25648" from="78335866" to="48870937" type="M_motorcycle" />
    <trip id="M3561" depart="25650" from="-48562986#6" to="-78046855#13" type="M_motorcycle" />
    <trip id="M3586" depart="25652" from="823972762" to="189083696#1" type="M_motorcycle" />
    <trip id="M3591" depart="25653" from="49188674" to="79537294#2" type="M_motorcycle" />
    <trip id="M3600" depart="25654" from="88750521#2" to="-821882274" type="M_motorcycle" />
    <trip id="M3614" depart="25655" from="79536966" to="78046806#11" type="M_motorcycle" />
    <trip id="M3632" depart="25658" from="48136193#0" to="74920160#0" type="M_motorcycle" />
    <trip id="M3634" depart="25659" from="48287809#5" to="-247536020#8" type="M_motorcycle" />
    <trip id="M3656" depart="25662" from="-74740742#0" to="-821504318#0" type="M_motorcycle" />
    <trip id="M3668" depart="25665" from="-108333965#6" to="-821535620#0" type="M_motorcycle" />
    <trip id="M3687" depart="25667" from="1005180357#0" to="79091746#2" type="M_motorcycle" />
    <trip id="M3700" depart="25668" from="-78518791" to="822309862#3" type="M_motorcycle" />
    <trip id="M3703" depart="25669" from="91908550#5" to="571378493" type="M_motorcycle" />
    <trip id="M3705" depart="25670" from="90972272#11" to="572027724#4" type="M_motorcycle" />
    <trip id="M3719" depart="25671" from="-232897250#1" to="-108333937#10" type="M_motorcycle" />
    <trip id="M3727" depart="25672" from="-571127533" to="824672883" type="M_motorcycle" />
    <trip id="M3772" depart="25678" from="-78518789#1" to="-79091699" type="M_motorcycle" />
    <trip id="M3803" depart="25681" from="572098392#0" to="571386790#0" type="M_motorcycle" />
    <trip id="M3816" depart="25682" from="-247478989#1" to="435398046#0" type="M_motorcycle" />
    <trip id="M3849" depart="25683" from="-503110275#9" to="79535692#3" type="M_motorcycle" />
    <trip id="M3861" depart="25684" from="-572101155#0" to="79536872#2" type="M_motorcycle" />
    <trip id="M3875" depart="25685" from="79535639#7" to="79535705#0" type="M_motorcycle" />
    <trip id="M3899" depart="25689" from="530397310" to="91859878#4" type="M_motorcycle" />
    <trip id="M3905" depart="25690" from="-821888940" to="571426122#4" type="M_motorcycle" />
    <trip id="M3925" depart="25692" from="-79535805" to="78335742#4" type="M_motorcycle" />
    <trip id="M3927" depart="25693" from="-824659721" to="-821906528" type="M_motorcycle" />
    <trip id="M3960" depart="25698" from="-91859818#2" to="-155343013#1" type="M_motorcycle" />
    <trip id="M3969" depart="25699" from="-108452863#1" to="79536742#0" type="M_motorcycle" />
    <trip id="M3975" depart="25701" from="79537173" to="-107286301#0" type="M_motorcycle" />
    <trip id="M3982" depart="25703" from="91393348#2" to="74918635#9" type="M_motorcycle" />
    <trip id="M4001" depart="25704" from="-91859818#2" to="572145739#2" type="M_motorcycle" />
    <trip id="M4070" depart="25709" from="-1003869641" to="-247535963#3" type="M_motorcycle" />
    <trip id="M4086" depart="25712" from="79536883#2" to="268533820#7" type="M_motorcycle" />
    <trip id="M4094" depart="25713" from="92022549#1" to="74918639#8" type="M_motorcycle" />
    <trip id="M4107" depart="25716" from="-79537073" to="-581081059" type="M_motorcycle" />
    <trip id="M4114" depart="25717" from="824644027#0" to="-48562222#3" type="M_motorcycle" />
    <trip id="M4126" depart="25719" from="-79536638" to="73573116" type="M_motorcycle" />
    <trip id="M4148" depart="25722" from="-571395008" to="-79091807#4" type="M_motorcycle" />
    <trip id="M4154" depart="25724" from="-1001615014" to="-79711747#3" type="M_motorcycle" />
    <trip id="M4158" depart="25725" from="78335734" to="436441827#3" type="M_motorcycle" />
    <trip id="M4166" depart="25726" from="-571395007#0" to="572106607#2" type="M_motorcycle" />
    <trip id="M4169" depart="25727" from="-88750499#9" to="-436441832" type="M_motorcycle" />
    <trip id="M4188" depart="25731" from="-78046820#6" to="79091784#1" type="M_motorcycle" />
    <trip id="M4216" depart="25733" from="48136203#4" to="263302177#0" type="M_motorcycle" />
    <trip id="M4239" depart="25735" from="-79537160#2" to="-79091869#2" type="M_motorcycle" />
    <trip id="M4256" depart="25737" from="-78046881#6" to="79536714#1" type="M_motorcycle" />
    <trip id="M4301" depart="25739" from="-247462383#7" to="79091928#1" type="M_motorcycle" />
    <trip id="M4306" depart="25740" from="-48514961#20" to="-107286307#0" type="M_motorcycle" />
    <trip id="M4319" depart="25743" from="79091697#2" to="95412522#1" type="M_motorcycle" />
    <trip id="M4350" depart="25748" from="-79535831#1" to="79536930#4" type="M_motorcycle" />
    <trip id="M4422" depart="25755" from="79091661" to="79536137#0" type="M_motorcycle" />
    <trip id="M4443" depart="25758" from="79711795" to="79536842#6" type="M_motorcycle" />
    <trip id="M4459" depart="25759" from="78335806#5" to="-79711727#8" type="M_motorcycle" />
    <trip id="M4464" depart="25760" from="79091919#0" to="372926771#3" type="M_motorcycle" />
    <trip id="M4466" depart="25761" from="78046787" to="821560546" type="M_motorcycle" />
    <trip id="M4481" depart="25763" from="-297923440#0" to="571386790#2" type="M_motorcycle" />
    <trip id="M4491" depart="25765" from="88370695" to="-102150886#1" type="M_motorcycle" />
    <trip id="M4541" depart="25766" from="-247555570#1" to="-91859818#3" type="M_motorcycle" />
    <trip id="M4584" depart="25773" from="-571386839" to="176539406#14" type="M_motorcycle" />
    <trip id="M4593" depart="25775" from="247540439#3" to="821229022#1" type="M_motorcycle" />
    <trip id="M4594" depart="25776" from="78335807#6" to="633072647#4" type="M_motorcycle" />
    <trip id="M4621" depart="25778" from="-79536242#1" to="79537269#1" type="M_motorcycle" />
    <trip id="M4626" depart="25779" from="79536672#0" to="79536855#5" type="M_motorcycle" />
    <trip id="M4640" depart="25781" from="48136201#4" to="88520196#10" type="M_motorcycle" />
    <trip id="M4651" depart="25782" from="79535856#2" to="79536145#0" type="M_motorcycle" />
    <trip id="M4680" depart="25785" from="88750476#0" to="-824625192#1" type="M_motorcycle" />
    <trip id="M4683" depart="25786" from="263302177#2" to="1002548498" type="M_motorcycle" />
    <trip id="M4744" depart="25791" from="-567228565" to="88520171#14" type="M_motorcycle" />
    <trip id="M4769" depart="25793" from="824300377#7" to="-79091941#1" type="M_motorcycle" />
    <trip id="M4777" depart="25795" from="-79092048#0" to="821939995#4" type="M_motorcycle" />
    <trip id="M4788" depart="25796" from="405395787#1" to="268532187#3" type="M_motorcycle" />
    <trip id="M4806" depart="25798" from="821959405" to="-572152396" type="M_motorcycle" />
    <trip id="M4824" depart="25800" from="79535694#1" to="79711747#0" type="M_motorcycle" />
    <trip id="M4825" depart="25801" from="821965162#3" to="571371412" type="M_motorcycle" />
    <trip id="M4831" depart="25802" from="79091823#2" to="916101942" type="M_motorcycle" />
    <trip id="M4832" depart="25803" from="-823970948#1" to="79091925#5" type="M_motorcycle" />
    <trip id="M4833" depart="25804" from="-78335834#3" to="88750486#7" type="M_motorcycle" />
    <trip id="M4836" depart="25805" from="821950258#4" to="176539406#13" type="M_motorcycle" />
    <trip id="M4902" depart="25815" from="95412509#1" to="-1007548953" type="M_motorcycle" />
    <trip id="M4924" depart="25820" from="108333972#0" to="48514961#22" type="M_motorcycle" />
    <trip id="M4929" depart="25822" from="176274684#2" to="79091737#0" type="M_motorcycle" />
    <trip id="M4931" depart="25823" from="-822309593#1" to="79711727#4" type="M_motorcycle" />
    <trip id="M4933" depart="25824" from="78335865#0" to="-92022563#0" type="M_motorcycle" />
    <trip id="M4938" depart="25825" from="79092004" to="-797558187" type="M_motorcycle" />
    <trip id="M4947" depart="25828" from="-247462315#0" to="79537528#5" type="M_motorcycle" />
    <trip id="M4955" depart="25830" from="1002973598" to="-247536010#2" type="M_motorcycle" />
    <trip id="M4966" depart="25832" from="79536455#0" to="-79091653" type="M_motorcycle" />
    <trip id="M4990" depart="25834" from="-88750499#1" to="-247478981#1" type="M_motorcycle" />