<?xml version="1.0" encoding="UTF-8"?>

<!-- generated on 2024-07-02 14:21:51.612232 by randomTrips.py v1_19_0+0000-baa66a0f364
<configuration>
    <net-file value="Pasto_VAN.net.xml"/>
    <output-trip-file value="taxi.trips.xml"/>
    <prefix value="T"/>
    <vehicle-class value="passenger"/>
    <end value="86400.0"/>
</configuration>
-->

<routes xmlns:xsi="http://www.w3.org/2001/XMLSchema-instance" xsi:noNamespaceSchemaLocation="http://sumo.dlr.de/xsd/routes_file.xsd">
    <vType id="T_passenger" vClass="passenger"/>
    <trip id="T25800" depart="25800.00" from="-821658516" to="821887028" type="T_passenger"/>
    <trip id="T25801" depart="25801.00" from="90972280#4-AddedOnRampEdge" to="-79536378#2" type="T_passenger"/>
    <trip id="T25802" depart="25802.00" from="135714171" to="405395787#0" type="T_passenger"/>
    <trip id="T25803" depart="25803.00" from="79536142#2" to="79535785#2" type="T_passenger"/>
    <trip id="T25804" depart="25804.00" from="-92022549#0" to="48357657#6" type="T_passenger"/>
    <trip id="T25805" depart="25805.00" from="79091743#0" to="-102150849#0" type="T_passenger"/>
    <trip id="T25806" depart="25806.00" from="572024630" to="79536362#36" type="T_passenger"/>
    <trip id="T25807" depart="25807.00" from="79091826#2" to="821508739#0" type="T_passenger"/>
    <trip id="T25808" depart="25808.00" from="96319768#0" to="78518784" type="T_passenger"/>
    <trip id="T25809" depart="25809.00" from="76256886#3" to="-78335736#2" type="T_passenger"/>
    <trip id="T25810" depart="25810.00" from="-419628716#11" to="247462400" type="T_passenger"/>
    <trip id="T25811" depart="25811.00" from="572027724#3" to="-79091932#0" type="T_passenger"/>
    <trip id="T25812" depart="25812.00" from="247478999#1" to="79535911#2" type="T_passenger"/>
    <trip id="T25813" depart="25813.00" from="-571377955#0" to="79091869#3" type="T_passenger"/>
    <trip id="T25814" depart="25814.00" from="-571395007#1" to="90972280#0" type="T_passenger"/>
    <trip id="T25815" depart="25815.00" from="-78046806#2" to="-821970511#6" type="T_passenger"/>
    <trip id="T25816" depart="25816.00" from="419628716#13" to="-571371020" type="T_passenger"/>
    <trip id="T25817" depart="25817.00" from="626983747#0" to="79091697#2" type="T_passenger"/>
    <trip id="T25818" depart="25818.00" from="571423421#0" to="-571377955#4" type="T_passenger"/>
    <trip id="T25819" depart="25819.00" from="79091803#2" to="247462387#4" type="T_passenger"/>
    <trip id="T25820" depart="25820.00" from="-48562293" to="-824669572#0" type="T_passenger"/>
    <trip id="T25821" depart="25821.00" from="-48509139#3" to="-108333936#0" type="T_passenger"/>
    <trip id="T25822" depart="25822.00" from="98356941#3" to="797558187" type="T_passenger"/>
    <trip id="T25823" depart="25823.00" from="-79711727#22" to="-79536638" type="T_passenger"/>
    <trip id="T25824" depart="25824.00" from="176539375#5" to="79536069#1" type="T_passenger"/>
    <trip id="T25825" depart="25825.00" from="79536209#1" to="-107286372#0" type="T_passenger"/>
    <trip id="T25826" depart="25826.00" from="-79535967#0" to="74918635#9" type="T_passenger"/>
    <trip id="T25827" depart="25827.00" from="-572035777#0" to="91859818#1" type="T_passenger"/>
    <trip id="T25828" depart="25828.00" from="571285779#1" to="821874475#2" type="T_passenger"/>
    <trip id="T25829" depart="25829.00" from="-798416902#1" to="-48377233#0" type="T_passenger"/>
    <trip id="T25830" depart="25830.00" from="-821907225#1" to="-79711727#11" type="T_passenger"/>
    <trip id="T25831" depart="25831.00" from="-821961692#6" to="-79711765" type="T_passenger"/>
    <trip id="T25832" depart="25832.00" from="92022552#3" to="48562999#4" type="T_passenger"/>
    <trip id="T25833" depart="25833.00" from="91859806" to="-824637179#0" type="T_passenger"/>
    <trip id="T25834" depart="25834.00" from="49157405#1" to="-247536000#5" type="T_passenger"/>
    <trip id="T25835" depart="25835.00" from="48395935#9" to="821969135#1" type="T_passenger"/>
    <trip id="T25836" depart="25836.00" from="-107286337#4" to="79537447#2" type="T_passenger"/>
    <trip id="T25837" depart="25837.00" from="92023679" to="74918639#8" type="T_passenger"/>
    <trip id="T25838" depart="25838.00" from="-79536263" to="78335827#3" type="T_passenger"/>
    <trip id="T25839" depart="25839.00" from="48563009#8" to="-107286394#6" type="T_passenger"/>
    <trip id="T25840" depart="25840.00" from="-79537449#3" to="633036936#1" type="T_passenger"/>
    <trip id="T25841" depart="25841.00" from="-79711727#4" to="48870206#0" type="T_passenger"/>
    <trip id="T25842" depart="25842.00" from="-78046748#1" to="79091923" type="T_passenger"/>
    <trip id="T25843" depart="25843.00" from="-824644027#1" to="79537083#0" type="T_passenger"/>
    <trip id="T25844" depart="25844.00" from="1005180357#0" to="-79536112#0" type="T_passenger"/>
    <trip id="T25845" depart="25845.00" from="821969135#2" to="572020451" type="T_passenger"/>
    <trip id="T25846" depart="25846.00" from="79536672#0" to="88528652#0" type="T_passenger"/>
    <trip id="T25847" depart="25847.00" from="79091817#0" to="79536333" type="T_passenger"/>
    <trip id="T25848" depart="25848.00" from="91859768#3" to="79536327" type="T_passenger"/>
    <trip id="T25849" depart="25849.00" from="76391866#5" to="247462329#5" type="T_passenger"/>
    <trip id="T25850" depart="25850.00" from="-90972274#0" to="79091914#4" type="T_passenger"/>
    <trip id="T25851" depart="25851.00" from="247478957#6" to="78518705" type="T_passenger"/>
    <trip id="T25852" depart="25852.00" from="79537293#0" to="633036932#2" type="T_passenger"/>
    <trip id="T25853" depart="25853.00" from="-78046880#2" to="91387725#4" type="T_passenger"/>
    <trip id="T25854" depart="25854.00" from="-79092048#1" to="79537253#0" type="T_passenger"/>
    <trip id="T25855" depart="25855.00" from="79092039#1" to="247536053" type="T_passenger"/>
    <trip id="T25856" depart="25856.00" from="49156619#0" to="-107286280#0" type="T_passenger"/>
    <trip id="T25857" depart="25857.00" from="824631907" to="-824620505" type="T_passenger"/>
    <trip id="T25858" depart="25858.00" from="48243121" to="-503110275#2" type="T_passenger"/>
    <trip id="T25859" depart="25859.00" from="-571426125" to="-873061630" type="T_passenger"/>
    <trip id="T25860" depart="25860.00" from="-247478993" to="247535962" type="T_passenger"/>
    <trip id="T25861" depart="25861.00" from="48135967#7" to="108333937#20" type="T_passenger"/>
    <trip id="T25862" depart="25862.00" from="-821535620#0" to="78046828" type="T_passenger"/>
    <trip id="T25863" depart="25863.00" from="571429945#1" to="79091836#3" type="T_passenger"/>
    <trip id="T25864" depart="25864.00" from="-247462345#2" to="-503110285#0" type="T_passenger"/>
    <trip id="T25865" depart="25865.00" from="-572035777#1" to="-627255906#0" type="T_passenger"/>
    <trip id="T25866" depart="25866.00" from="-571376325" to="79535911#0" type="T_passenger"/>
    <trip id="T25867" depart="25867.00" from="-96319769#0" to="-79091808#0" type="T_passenger"/>
    <trip id="T25868" depart="25868.00" from="822235833#5" to="633036941#4" type="T_passenger"/>
    <trip id="T25869" depart="25869.00" from="-822309862#0" to="821972518#2" type="T_passenger"/>
    <trip id="T25870" depart="25870.00" from="-1003385065" to="247462366#1" type="T_passenger"/>
    <trip id="T25871" depart="25871.00" from="572035784" to="167671622" type="T_passenger"/>
    <trip id="T25872" depart="25872.00" from="79537528#0" to="-824301591#0" type="T_passenger"/>
    <trip id="T25873" depart="25873.00" from="247545771#0" to="79537253#1" type="T_passenger"/>
    <trip id="T25874" depart="25874.00" from="-79091662#1" to="79536309#9" type="T_passenger"/>
    <trip id="T25875" depart="25875.00" from="107286295#1" to="-78518809#2" type="T_passenger"/>
    <trip id="T25876" depart="25876.00" from="633036941#15" to="-79536508#0" type="T_passenger"/>
    <trip id="T25877" depart="25877.00" from="-572017438#2" to="216293267#3" type="T_passenger"/>
    <trip id="T25878" depart="25878.00" from="79537247#0" to="-1006055858" type="T_passenger"/>
    <trip id="T25879" depart="25879.00" from="76256886#0" to="932018780#9" type="T_passenger"/>
    <trip id="T25880" depart="25880.00" from="79537176#1" to="-571836944#0" type="T_passenger"/>
    <trip id="T25881" depart="25881.00" from="-79091645" to="79535879#2" type="T_passenger"/>
    <trip id="T25882" depart="25882.00" from="-571450701" to="572146507#1" type="T_passenger"/>
    <trip id="T25883" depart="25883.00" from="-247478989#1" to="-78046826#0" type="T_passenger"/>
    <trip id="T25884" depart="25884.00" from="79711727#12" to="782472049#3" type="T_passenger"/>
    <trip id="T25885" depart="25885.00" from="-232848626#2" to="79537093#22" type="T_passenger"/>
    <trip id="T25886" depart="25886.00" from="798522387#1" to="1002492303#4" type="T_passenger"/>
    <trip id="T25887" depart="25887.00" from="79091762#5" to="-107286346#1" type="T_passenger"/>
    <trip id="T25888" depart="25888.00" from="108333920#2" to="48268641#4" type="T_passenger"/>
    <trip id="T25889" depart="25889.00" from="79092105#6" to="79091706#1" type="T_passenger"/>
    <trip id="T25890" depart="25890.00" from="-824637179#1" to="-79535667#3" type="T_passenger"/>
    <trip id="T25891" depart="25891.00" from="79091987#1" to="-823970948#1" type="T_passenger"/>
    <trip id="T25892" depart="25892.00" from="-79537183#4" to="376279911#8" type="T_passenger"/>
    <trip id="T25893" depart="25893.00" from="-821250387#0" to="107286289#5" type="T_passenger"/>
    <trip id="T25894" depart="25894.00" from="88528652#5" to="824684676#3" type="T_passenger"/>
    <trip id="T25895" depart="25895.00" from="48205260#0" to="247462360#1" type="T_passenger"/>
    <trip id="T25896" depart="25896.00" from="-78335833#4" to="-540970681#1" type="T_passenger"/>
    <trip id="T25897" depart="25897.00" from="247549499#3" to="48268341#10" type="T_passenger"/>
    <trip id="T25898" depart="25898.00" from="824662365" to="-79535816#5" type="T_passenger"/>
    <trip id="T25899" depart="25899.00" from="-824650901#0" to="48509152#1" type="T_passenger"/>
    <trip id="T25900" depart="25900.00" from="-561134173" to="-633036932#2" type="T_passenger"/>
    <trip id="T25901" depart="25901.00" from="78335842" to="824669984" type="T_passenger"/>
    <trip id="T25902" depart="25902.00" from="-96319768#1" to="-824672881" type="T_passenger"/>
    <trip id="T25903" depart="25903.00" from="366015250#0" to="79091980#1" type="T_passenger"/>
    <trip id="T25904" depart="25904.00" from="-824648947#8" to="-79091675#2" type="T_passenger"/>
    <trip id="T25905" depart="25905.00" from="571369182#0" to="79091710#0" type="T_passenger"/>
    <trip id="T25906" depart="25906.00" from="-79091696#2" to="-572101157#0" type="T_passenger"/>
    <trip id="T25907" depart="25907.00" from="-48514961#1" to="79092036#2" type="T_passenger"/>
    <trip id="T25908" depart="25908.00" from="48136201#0" to="79536031" type="T_passenger"/>
    <trip id="T25909" depart="25909.00" from="-247462326#2" to="-1005494611#0" type="T_passenger"/>
    <trip id="T25910" depart="25910.00" from="247557626" to="821229029" type="T_passenger"/>
    <trip id="T25911" depart="25911.00" from="-436185376" to="78335901#0" type="T_passenger"/>
    <trip id="T25912" depart="25912.00" from="821946086#2" to="79537088#0" type="T_passenger"/>
    <trip id="T25913" depart="25913.00" from="-821891979" to="-79536619" type="T_passenger"/>
    <trip id="T25914" depart="25914.00" from="79536600#0" to="78046810#3" type="T_passenger"/>
    <trip id="T25915" depart="25915.00" from="821945787#1" to="88520171#6" type="T_passenger"/>
    <trip id="T25916" depart="25916.00" from="79091936#0" to="-49156617#5" type="T_passenger"/>
    <trip id="T25917" depart="25917.00" from="-49157544#0" to="48268814#8" type="T_passenger"/>
    <trip id="T25918" depart="25918.00" from="903610851#1" to="78335822#2" type="T_passenger"/>
    <trip id="T25919" depart="25919.00" from="-79537033" to="79711727#13" type="T_passenger"/>
    <trip id="T25920" depart="25920.00" from="-297923440#2" to="49156615#0" type="T_passenger"/>
    <trip id="T25921" depart="25921.00" from="-247549499#7" to="821966812" type="T_passenger"/>
    <trip id="T25922" depart="25922.00" from="-79536311#0" to="78335865#4" type="T_passenger"/>
    <trip id="T25923" depart="25923.00" from="-821923849" to="-824684676#1" type="T_passenger"/>
    <trip id="T25924" depart="25924.00" from="232848628#3" to="108333965#12" type="T_passenger"/>
    <trip id="T25925" depart="25925.00" from="-824901335" to="503110293" type="T_passenger"/>
    <trip id="T25926" depart="25926.00" from="78518712#2" to="-633036941#11" type="T_passenger"/>
    <trip id="T25927" depart="25927.00" from="-788905222#1" to="180649339" type="T_passenger"/>
    <trip id="T25928" depart="25928.00" from="-49156619#5" to="247545773#2" type="T_passenger"/>
    <trip id="T25929" depart="25929.00" from="79091905" to="-232848626#2" type="T_passenger"/>
    <trip id="T25930" depart="25930.00" from="-79537457#3" to="-824896876#0" type="T_passenger"/>
    <trip id="T25931" depart="25931.00" from="91405620#2" to="78335820#5" type="T_passenger"/>
    <trip id="T25932" depart="25932.00" from="-571379973#1" to="91859822#0" type="T_passenger"/>
    <trip id="T25933" depart="25933.00" from="107286383#3" to="-89280520#3" type="T_passenger"/>
    <trip id="T25934" depart="25934.00" from="91859835" to="79536700#1" type="T_passenger"/>
    <trip id="T25935" depart="25935.00" from="79091658" to="-78046884#3" type="T_passenger"/>
    <trip id="T25936" depart="25936.00" from="96321118#4" to="-247462329#1" type="T_passenger"/>
    <trip id="T25937" depart="25937.00" from="-571426122#4" to="-79537451#8" type="T_passenger"/>
    <trip id="T25938" depart="25938.00" from="-78046855#1" to="-79092105#1" type="T_passenger"/>
    <trip id="T25939" depart="25939.00" from="893393727" to="-48375938#2" type="T_passenger"/>
    <trip id="T25940" depart="25940.00" from="95559451#0" to="-821508738" type="T_passenger"/>
    <trip id="T25941" depart="25941.00" from="935787571#1" to="76256886#0" type="T_passenger"/>
    <trip id="T25942" depart="25942.00" from="-78335829#0" to="79536407#1" type="T_passenger"/>
    <trip id="T25943" depart="25943.00" from="88750499#1" to="-824644535#2" type="T_passenger"/>
    <trip id="T25944" depart="25944.00" from="-436441827#3" to="571377955#6" type="T_passenger"/>
    <trip id="T25945" depart="25945.00" from="571389201#1" to="572146502#0" type="T_passenger"/>
    <trip id="T25946" depart="25946.00" from="-633036927" to="-247536022" type="T_passenger"/>
    <trip id="T25947" depart="25947.00" from="-247549480#1" to="-572102640#1" type="T_passenger"/>
    <trip id="T25948" depart="25948.00" from="95409160#2" to="-78046803#6" type="T_passenger"/>
    <trip id="T25949" depart="25949.00" from="79091925#0" to="-1038690866" type="T_passenger"/>
    <trip id="T25950" depart="25950.00" from="79536145#7" to="572024632#2" type="T_passenger"/>
    <trip id="T25951" depart="25951.00" from="78046810#1" to="-79091861#2" type="T_passenger"/>
    <trip id="T25952" depart="25952.00" from="-247478969" to="79536727" type="T_passenger"/>
    <trip id="T25953" depart="25953.00" from="1007548960#1" to="-79536407#0" type="T_passenger"/>
    <trip id="T25954" depart="25954.00" from="-247462332" to="88528652#5" type="T_passenger"/>
    <trip id="T25955" depart="25955.00" from="78335806#2" to="-571377955#9" type="T_passenger"/>
    <trip id="T25956" depart="25956.00" from="79535667#1" to="30517133#1-AddedOffRampEdge" type="T_passenger"/>
    <trip id="T25957" depart="25957.00" from="79091980#0" to="78335833#2" type="T_passenger"/>
    <trip id="T25958" depart="25958.00" from="98356943#9" to="-268532187#3" type="T_passenger"/>
    <trip id="T25959" depart="25959.00" from="-297923440#0" to="571835452" type="T_passenger"/>
    <trip id="T25960" depart="25960.00" from="-571301431" to="88750494#1" type="T_passenger"/>
    <trip id="T25961" depart="25961.00" from="79092036#2" to="-95411331#0" type="T_passenger"/>
    <trip id="T25962" depart="25962.00" from="-247462340" to="-821961692#1" type="T_passenger"/>
    <trip id="T25963" depart="25963.00" from="627037395" to="-247462326#5" type="T_passenger"/>
    <trip id="T25964" depart="25964.00" from="48562986#1" to="79537073" type="T_passenger"/>
    <trip id="T25965" depart="25965.00" from="821949194" to="48136202#0" type="T_passenger"/>
    <trip id="T25966" depart="25966.00" from="-88750521#2" to="-824618445#3" type="T_passenger"/>
    <trip id="T25967" depart="25967.00" from="-107286379" to="48357657#6" type="T_passenger"/>
    <trip id="T25968" depart="25968.00" from="49157544#2" to="-79091856#0" type="T_passenger"/>
    <trip id="T25969" depart="25969.00" from="78046845#0" to="-78335820#5" type="T_passenger"/>
    <trip id="T25970" depart="25970.00" from="108452906#2" to="788587783#0" type="T_passenger"/>
    <trip id="T25971" depart="25971.00" from="405395786#2" to="79537023#1" type="T_passenger"/>
    <trip id="T25972" depart="25972.00" from="822231290" to="79091862" type="T_passenger"/>
    <trip id="T25973" depart="25973.00" from="-1008002436" to="-823976214#0" type="T_passenger"/>
    <trip id="T25974" depart="25974.00" from="-79091762#3" to="-821229023#3" type="T_passenger"/>
    <trip id="T25975" depart="25975.00" from="391060080" to="48268641#2" type="T_passenger"/>
    <trip id="T25976" depart="25976.00" from="824648945#2" to="247557161#1" type="T_passenger"/>
    <trip id="T25977" depart="25977.00" from="98356941#1" to="571377235#1" type="T_passenger"/>
    <trip id="T25978" depart="25978.00" from="79091696#3" to="108333937#5" type="T_passenger"/>
    <trip id="T25979" depart="25979.00" from="142724413#5" to="79536334#1" type="T_passenger"/>
    <trip id="T25980" depart="25980.00" from="-79711790#0" to="-79091870#2" type="T_passenger"/>
    <trip id="T25981" depart="25981.00" from="-821966812" to="571372352" type="T_passenger"/>
    <trip id="T25982" depart="25982.00" from="-74433340#1" to="48562798#1" type="T_passenger"/>
    <trip id="T25983" depart="25983.00" from="-79536037" to="-79535792#2" type="T_passenger"/>
    <trip id="T25984" depart="25984.00" from="-247555570#0" to="821515469" type="T_passenger"/>
    <trip id="T25985" depart="25985.00" from="79535622#2" to="-824300377#10" type="T_passenger"/>
    <trip id="T25986" depart="25986.00" from="-79092002#1" to="232848628#8" type="T_passenger"/>
    <trip id="T25987" depart="25987.00" from="48514961#16" to="78046873#5" type="T_passenger"/>
    <trip id="T25988" depart="25988.00" from="819566323" to="-247536027" type="T_passenger"/>
    <trip id="T25989" depart="25989.00" from="-268532191" to="-108452863#6" type="T_passenger"/>
    <trip id="T25990" depart="25990.00" from="247549499#6" to="78046859#2" type="T_passenger"/>
    <trip id="T25991" depart="25991.00" from="167671619#17" to="78046879#2" type="T_passenger"/>
    <trip id="T25992" depart="25992.00" from="-571377484#1" to="-78046716#0" type="T_passenger"/>
    <trip id="T25993" depart="25993.00" from="-735027521#3" to="633036926#2" type="T_passenger"/>
    <trip id="T25994" depart="25994.00" from="-79536328#2" to="-79536792#3" type="T_passenger"/>
    <trip id="T25995" depart="25995.00" from="48395935#0" to="-79537382#1" type="T_passenger"/>
    <trip id="T25996" depart="25996.00" from="108333937#14" to="79536570#0" type="T_passenger"/>
    <trip id="T25997" depart="25997.00" from="79536209#2" to="48136203#7" type="T_passenger"/>
    <trip id="T25998" depart="25998.00" from="375278864#10" to="79536118#2" type="T_passenger"/>
    <trip id="T25999" depart="25999.00" from="-88528652#3" to="572102376#0" type="T_passenger"/>
    <trip id="T26000" depart="26000.00" from="819578582#1" to="-821504311" type="T_passenger"/>
    <trip id="T26001" depart="26001.00" from="91399077#1" to="-419628716#2" type="T_passenger"/>
    <trip id="T26002" depart="26002.00" from="-79536180#0" to="-571384859#2" type="T_passenger"/>
    <trip id="T26003" depart="26003.00" from="-824631901#0" to="-572147998#2" type="T_passenger"/>
    <trip id="T26004" depart="26004.00" from="79091836#7" to="-48399847#4" type="T_passenger"/>
    <trip id="T26005" depart="26005.00" from="-571434356#1" to="79091705#3" type="T_passenger"/>
    <trip id="T26006" depart="26006.00" from="247462347#2" to="-79091949#1" type="T_passenger"/>
    <trip id="T26007" depart="26007.00" from="79536046#1" to="-48135815#2" type="T_passenger"/>
    <trip id="T26008" depart="26008.00" from="-79091980#2" to="48136202#3" type="T_passenger"/>
    <trip id="T26009" depart="26009.00" from="107286351#0" to="79536142#0" type="T_passenger"/>
    <trip id="T26010" depart="26010.00" from="73579003#1" to="-571374847#2" type="T_passenger"/>
    <trip id="T26011" depart="26011.00" from="79092037#1" to="-79091858" type="T_passenger"/>
    <trip id="T26012" depart="26012.00" from="530397328#1" to="-821908612#0" type="T_passenger"/>
    <trip id="T26013" depart="26013.00" from="-824623877#0" to="824637179#1" type="T_passenger"/>
    <trip id="T26014" depart="26014.00" from="572145737#0" to="-627284435#4" type="T_passenger"/>
    <trip id="T26015" depart="26015.00" from="-821888938" to="48870204#3" type="T_passenger"/>
    <trip id="T26016" depart="26016.00" from="-571282029#1" to="-79091823#0" type="T_passenger"/>
    <trip id="T26017" depart="26017.00" from="-78046806#2" to="90972272#4" type="T_passenger"/>
    <trip id="T26018" depart="26018.00" from="79536797#2" to="79536328#2" type="T_passenger"/>
    <trip id="T26019" depart="26019.00" from="107286358#1" to="797701645#3" type="T_passenger"/>
    <trip id="T26020" depart="26020.00" from="-79091807#3" to="88370689" type="T_passenger"/>
    <trip id="T26021" depart="26021.00" from="903610851#0" to="247462362#0" type="T_passenger"/>
    <trip id="T26022" depart="26022.00" from="-108333855#1" to="797032950#1" type="T_passenger"/>
    <trip id="T26023" depart="26023.00" from="571370215#1" to="-79091879#0" type="T_passenger"/>
    <trip id="T26024" depart="26024.00" from="-88750520#1" to="-96319773#1" type="T_passenger"/>
    <trip id="T26025" depart="26025.00" from="-247462375#1" to="247536031" type="T_passenger"/>
    <trip id="T26026" depart="26026.00" from="91393352#5" to="88520171#3" type="T_passenger"/>
    <trip id="T26027" depart="26027.00" from="48268647" to="79536797#3" type="T_passenger"/>
    <trip id="T26028" depart="26028.00" from="-48135818#0" to="74918639#9" type="T_passenger"/>
    <trip id="T26029" depart="26029.00" from="572152396" to="88740886" type="T_passenger"/>
    <trip id="T26030" depart="26030.00" from="48135815#1" to="-78046716#1" type="T_passenger"/>
    <trip id="T26031" depart="26031.00" from="824671963" to="48514961#25" type="T_passenger"/>
    <trip id="T26032" depart="26032.00" from="-436185379#1" to="79537326" type="T_passenger"/>
    <trip id="T26033" depart="26033.00" from="-79091727#6" to="824620505" type="T_passenger"/>
    <trip id="T26034" depart="26034.00" from="-821229023#6" to="111796791#5" type="T_passenger"/>
    <trip id="T26035" depart="26035.00" from="571425905" to="-798416902#0" type="T_passenger"/>
    <trip id="T26036" depart="26036.00" from="572146629#1" to="-821907224#0" type="T_passenger"/>
    <trip id="T26037" depart="26037.00" from="-107286283#1" to="-111796790#3" type="T_passenger"/>
    <trip id="T26038" depart="26038.00" from="247549499#8" to="-824617659#0" type="T_passenger"/>
    <trip id="T26039" depart="26039.00" from="78046824#1" to="-79536675" type="T_passenger"/>
    <trip id="T26040" depart="26040.00" from="-571465480#2" to="91393352#7" type="T_passenger"/>
    <trip id="T26041" depart="26041.00" from="-821882278#2" to="79535789#8" type="T_passenger"/>
    <trip id="T26042" depart="26042.00" from="572108380#2" to="-78046786#8" type="T_passenger"/>
    <trip id="T26043" depart="26043.00" from="176539406#4" to="824684676#2" type="T_passenger"/>
    <trip id="T26044" depart="26044.00" from="79091936#2" to="824644031" type="T_passenger"/>
    <trip id="T26045" depart="26045.00" from="76503806#8" to="821535621#1" type="T_passenger"/>
    <trip id="T26046" depart="26046.00" from="-78046844#1" to="-79092079#3" type="T_passenger"/>
    <trip id="T26047" depart="26047.00" from="247549480#1" to="-571395007#0" type="T_passenger"/>
    <trip id="T26048" depart="26048.00" from="821961697#1" to="-79536767#7" type="T_passenger"/>
    <trip id="T26049" depart="26049.00" from="-824301591#0" to="821229024#4" type="T_passenger"/>
    <trip id="T26050" depart="26050.00" from="92023679" to="-436441832" type="T_passenger"/>
    <trip id="T26051" depart="26051.00" from="79537260#1" to="-79536765" type="T_passenger"/>
    <trip id="T26052" depart="26052.00" from="540970681#2" to="-824300377#6" type="T_passenger"/>
    <trip id="T26053" depart="26053.00" from="627284435#3" to="-247549486#4" type="T_passenger"/>
    <trip id="T26054" depart="26054.00" from="-79536123" to="79091962#0" type="T_passenger"/>
    <trip id="T26055" depart="26055.00" from="-79535667#2" to="-79536600#2" type="T_passenger"/>
    <trip id="T26056" depart="26056.00" from="-821504313" to="-821965450#0" type="T_passenger"/>
    <trip id="T26057" depart="26057.00" from="-1005479959" to="-571426122#8" type="T_passenger"/>
    <trip id="T26058" depart="26058.00" from="-572102640#5" to="-247557147#0" type="T_passenger"/>
    <trip id="T26059" depart="26059.00" from="571386406" to="78335740#2" type="T_passenger"/>
    <trip id="T26060" depart="26060.00" from="366015250#5" to="893394226#6" type="T_passenger"/>
    <trip id="T26061" depart="26061.00" from="-79537229#5" to="-49156615#1" type="T_passenger"/>
    <trip id="T26062" depart="26062.00" from="-372926771#1" to="91405620#1" type="T_passenger"/>
    <trip id="T26063" depart="26063.00" from="893393727" to="821560546" type="T_passenger"/>
    <trip id="T26064" depart="26064.00" from="-79535692#3" to="48377231" type="T_passenger"/>
    <trip id="T26065" depart="26065.00" from="360913622#1" to="79091660#1" type="T_passenger"/>
    <trip id="T26066" depart="26066.00" from="-107286406#6" to="48562548#0" type="T_passenger"/>
    <trip id="T26067" depart="26067.00" from="-573331704#0" to="824636489#5" type="T_passenger"/>
    <trip id="T26068" depart="26068.00" from="-572162014" to="-176539406#11" type="T_passenger"/>
    <trip id="T26069" depart="26069.00" from="788905220#1" to="824636491#2" type="T_passenger"/>
    <trip id="T26070" depart="26070.00" from="821244986#3" to="79536678#1" type="T_passenger"/>
    <trip id="T26071" depart="26071.00" from="1005781445" to="824600072" type="T_passenger"/>
    <trip id="T26072" depart="26072.00" from="48981809#0" to="-247462319#0" type="T_passenger"/>
    <trip id="T26073" depart="26073.00" from="79536292" to="79536817#2" type="T_passenger"/>
    <trip id="T26074" depart="26074.00" from="-90972274#2" to="48135815#0" type="T_passenger"/>
    <trip id="T26075" depart="26075.00" from="78335742#1" to="-78046744#1" type="T_passenger"/>
    <trip id="T26076" depart="26076.00" from="-74740742#3" to="788613104#2" type="T_passenger"/>
    <trip id="T26077" depart="26077.00" from="107286419#7" to="-247535950#0" type="T_passenger"/>
    <trip id="T26078" depart="26078.00" from="824650234#0" to="76507749#0" type="T_passenger"/>
    <trip id="T26079" depart="26079.00" from="503110275#5" to="95405421#2" type="T_passenger"/>
    <trip id="T26080" depart="26080.00" from="247462357#1" to="-79091967#2" type="T_passenger"/>
    <trip id="T26081" depart="26081.00" from="78046882#0" to="-79537469#2" type="T_passenger"/>
    <trip id="T26082" depart="26082.00" from="633072647#3" to="-78335863#1" type="T_passenger"/>
    <trip id="T26083" depart="26083.00" from="74842973#3" to="571374869#0" type="T_passenger"/>
    <trip id="T26084" depart="26084.00" from="48981800#3" to="79091810" type="T_passenger"/>
    <trip id="T26085" depart="26085.00" from="-572102378" to="-79091925#5" type="T_passenger"/>
    <trip id="T26086" depart="26086.00" from="-821874475#1" to="-78518775" type="T_passenger"/>
    <trip id="T26087" depart="26087.00" from="-571373317" to="-822235834" type="T_passenger"/>
    <trip id="T26088" depart="26088.00" from="-79535929#0" to="96321160" type="T_passenger"/>
    <trip id="T26089" depart="26089.00" from="1038690866" to="-79536453#1" type="T_passenger"/>
    <trip id="T26090" depart="26090.00" from="1007590625" to="-79091984#0" type="T_passenger"/>
    <trip id="T26091" depart="26091.00" from="-247535961" to="247535993#0" type="T_passenger"/>
    <trip id="T26092" depart="26092.00" from="-821580501#1" to="108333936#0" type="T_passenger"/>
    <trip id="T26093" depart="26093.00" from="-79537039#1" to="-79091856#0" type="T_passenger"/>
    <trip id="T26094" depart="26094.00" from="-47997594#4" to="429965961#0" type="T_passenger"/>
    <trip id="T26095" depart="26095.00" from="-78046885#2" to="-247557161#1" type="T_passenger"/>
    <trip id="T26096" depart="26096.00" from="79091710#0" to="822358805#2" type="T_passenger"/>
    <trip id="T26097" depart="26097.00" from="-821646372" to="88750489#3" type="T_passenger"/>
    <trip id="T26098" depart="26098.00" from="78335778#0" to="-78335809#7" type="T_passenger"/>
    <trip id="T26099" depart="26099.00" from="821900518#2" to="-824620502" type="T_passenger"/>
    <trip id="T26100" depart="26100.00" from="-821229023#3" to="-79092029#0" type="T_passenger"/>
    <trip id="T26101" depart="26101.00" from="-48871851#7" to="79536704#1" type="T_passenger"/>
    <trip id="T26102" depart="26102.00" from="824684671#0" to="79091859#2" type="T_passenger"/>
    <trip id="T26103" depart="26103.00" from="822231291#6" to="79535957#2" type="T_passenger"/>
    <trip id="T26104" depart="26104.00" from="48136192#0" to="-821923847" type="T_passenger"/>
    <trip id="T26105" depart="26105.00" from="79536842#4" to="-821657665#0" type="T_passenger"/>