<routes xmlns:xsi="http://www.w3.org/2001/XMLSchema-instance" xsi:noNamespaceSchemaLocation="http://sumo.dlr.de/xsd/routes_file.xsd">
    <vType id="T_passenger" vClass="passenger" />
    <trip id="T2" depart="25200" from="79091784#1" to="78046848#0" type="T_passenger" />
    <trip id="T19" depart="25201" from="79711720#4" to="49157406#2" type="T_passenger" />
    <trip id="T28" depart="25202" from="-78046786#1" to="79091797#1" type="T_passenger" />
    <trip id="T33" depart="25203" from="-79091925#4" to="-108333965#14" type="T_passenger" />
    <trip id="T63" depart="25204" from="-107286359#1" to="824648947#12" type="T_passenger" />
    <trip id="T82" depart="25206" from="79537528#7" to="-247549494#6" type="T_passenger" />
    <trip id="T102" depart="25213" from="247478955#3" to="-79091877#4" type="T_passenger" />
    <trip id="T112" depart="25214" from="-247478987#6" to="540970676#4" type="T_passenger" />
    <trip id="T125" depart="25216" from="-798923790" to="79091982#0" type="T_passenger" />
    <trip id="T149" depart="25217" from="-259815365#0" to="821882278#3" type="T_passenger" />
    <trip id="T160" depart="25219" from="79711748#0" to="91760825#7" type="T_passenger" />
    <trip id="T169" depart="25220" from="110678708#1" to="-819566325" type="T_passenger" />
    <trip id="T179" depart="25221" from="-540970677#0" to="108333920#9" type="T_passenger" />
    <trip id="T190" depart="25222" from="79091648#5" to="-79711746#2" type="T_passenger" />
    <trip id="T196" depart="25223" from="-79537358#1" to="48357657#20" type="T_passenger" />
    <trip id="T203" depart="25224" from="-436441829#3" to="429966007#1" type="T_passenger" />
    <trip id="T234" depart="25227" from="78335865#10" to="-247536008#1" type="T_passenger" />
    <trip id="T252" depart="25228" from="-108333866#3" to="632002932#1" type="T_passenger" />
    <trip id="T310" depart="25231" from="-79535889#1" to="-571387195#1" type="T_passenger" />
    <trip id="T320" depart="25233" from="91758574" to="48377230#2" type="T_passenger" />
    <trip id="T341" depart="25234" from="-78046810#17" to="-268532187#1" type="T_passenger" />
    <trip id="T342" depart="25235" from="-1005244067" to="180646049#0" type="T_passenger" />
    <trip id="T346" depart="25236" from="78046855#9" to="824638086#1" type="T_passenger" />
    <trip id="T396" depart="25240" from="821515470" to="819566328" type="T_passenger" />
    <trip id="T400" depart="25241" from="-79536790#2" to="-79711727#15" type="T_passenger" />
    <trip id="T407" depart="25242" from="48377230#3" to="-79535694#1" type="T_passenger" />
    <trip id="T418" depart="25243" from="633036936#3" to="-74740742#1" type="T_passenger" />
    <trip id="T428" depart="25244" from="79091870#2" to="108333920#1" type="T_passenger" />
    <trip id="T439" depart="25246" from="-572104329#1" to="247462366#2" type="T_passenger" />
    <trip id="T446" depart="25247" from="-79535856#0" to="79537447#6" type="T_passenger" />
    <trip id="T465" depart="25249" from="-79537193#0" to="79091947#6" type="T_passenger" />
    <trip id="T469" depart="25250" from="79536925#5" to="-79536409#1" type="T_passenger" />
    <trip id="T471" depart="25251" from="79536399#3" to="79091941#3" type="T_passenger" />
    <trip id="T488" depart="25253" from="-572097394" to="88520161#8" type="T_passenger" />
    <trip id="T520" depart="25256" from="79091828#2" to="445512536#24" type="T_passenger" />
    <trip id="T529" depart="25260" from="78046848#0" to="247555570#1" type="T_passenger" />
    <trip id="T532" depart="25261" from="-247536025#0" to="-79536925#2" type="T_passenger" />
    <trip id="T536" depart="25262" from="551105959#7" to="-48981809#1" type="T_passenger" />
    <trip id="T568" depart="25265" from="-89280520#0" to="-572152833#0" type="T_passenger" />
    <trip id="T578" depart="25266" from="107286371#1" to="-79536872#1" type="T_passenger" />
    <trip id="T583" depart="25268" from="-88528655#0" to="571377955#6" type="T_passenger" />
    <trip id="T617" depart="25271" from="572017438#4" to="-633036941#3" type="T_passenger" />
    <trip id="T657" depart="25273" from="-79091901#0" to="-572110772" type="T_passenger" />
    <trip id="T678" depart="25275" from="-79535847" to="627284437#5" type="T_passenger" />
    <trip id="T685" depart="25276" from="-79091851#1" to="180649334#0" type="T_passenger" />
    <trip id="T690" depart="25277" from="824650901#2" to="79537293#0" type="T_passenger" />
    <trip id="T711" depart="25278" from="937918433#1" to="48395927#1" type="T_passenger" />
    <trip id="T712" depart="25279" from="-87973787#12" to="247478998#3" type="T_passenger" />
    <trip id="T717" depart="25280" from="79535639#0" to="79091841#0" type="T_passenger" />
    <trip id="T734" depart="25281" from="821939992#5" to="-91758570#0" type="T_passenger" />
    <trip id="T769" depart="25286" from="-48135818#7" to="78046884#0" type="T_passenger" />
    <trip id="T773" depart="25287" from="79537405#1" to="79091653" type="T_passenger" />
    <trip id="T829" depart="25290" from="88520157" to="375276948#1" type="T_passenger" />
    <trip id="T878" depart="25294" from="-821926012" to="-824641787#0" type="T_passenger" />
    <trip id="T882" depart="25295" from="-79535768#1" to="48398804#2" type="T_passenger" />
    <trip id="T899" depart="25296" from="-79092102#0" to="78046784#6" type="T_passenger" />
    <trip id="T908" depart="25297" from="-821229026#0" to="633036941#15" type="T_passenger" />
    <trip id="T913" depart="25298" from="821611279-AddedOffRampEdge" to="-78335736#1" type="T_passenger" />
    <trip id="T954" depart="25300" from="-247535963#1" to="48357657#17" type="T_passenger" />
    <trip id="T976" depart="25303" from="73569155#3" to="48243128#3" type="T_passenger" />
    <trip id="T985" depart="25304" from="-79536650#1" to="824678522#3" type="T_passenger" />
    <trip id="T995" depart="25307" from="-247478981#0" to="375276831#8" type="T_passenger" />
    <trip id="T1020" depart="25311" from="540970689#0" to="821515470" type="T_passenger" />
    <trip id="T1028" depart="25312" from="-79092102#2" to="571387195#5" type="T_passenger" />
    <trip id="T1052" depart="25314" from="79537290#0" to="88370706#2" type="T_passenger" />
    <trip id="T1066" depart="25316" from="-48514961#13" to="-631993359#1" type="T_passenger" />
    <trip id="T1138" depart="25318" from="-79537104#1" to="78335847#13" type="T_passenger" />
    <trip id="T1153" depart="25320" from="95527887#4" to="247536035#3" type="T_passenger" />
    <trip id="T1174" depart="25323" from="-572102390" to="-821515472#1" type="T_passenger" />
    <trip id="T1180" depart="25325" from="79537346#5" to="633072643#7" type="T_passenger" />
    <trip id="T1192" depart="25328" from="-247535986" to="-49157544#2" type="T_passenger" />
    <trip id="T1228" depart="25331" from="95412522#4" to="-503110275#11" type="T_passenger" />
    <trip id="T1235" depart="25332" from="48563010#5" to="-824633820#3" type="T_passenger" />
    <trip id="T1242" depart="25333" from="-79536995" to="-79536734#3" type="T_passenger" />
    <trip id="T1254" depart="25335" from="821524258" to="-48399847#4" type="T_passenger" />
    <trip id="T1257" depart="25336" from="88528644#0" to="-821939995#3" type="T_passenger" />
    <trip id="T1303" depart="25338" from="48136202#1" to="571378494#3" type="T_passenger" />
    <trip id="T1317" depart="25339" from="79092005#1" to="88750486#1" type="T_passenger" />
    <trip id="T1345" depart="25340" from="-247536001#0" to="79091655#2" type="T_passenger" />
    <trip id="T1356" depart="25342" from="79537512#0" to="48377224#0" type="T_passenger" />
    <trip id="T1375" depart="25343" from="-79091963#4" to="-824618445#3" type="T_passenger" />
    <trip id="T1383" depart="25344" from="-48375934#2" to="824633820#2" type="T_passenger" />
    <trip id="T1390" depart="25346" from="90972280#0" to="-79535816#5" type="T_passenger" />
    <trip id="T1422" depart="25348" from="-216293267#6" to="247462362#3" type="T_passenger" />
    <trip id="T1435" depart="25349" from="79536350#0" to="79536346" type="T_passenger" />
    <trip id="T1458" depart="25351" from="821560548#1" to="247557943" type="T_passenger" />
    <trip id="T1476" depart="25355" from="782472049#3" to="824648947#1" type="T_passenger" />
    <trip id="T1521" depart="25356" from="-78518764" to="-108333857#4" type="T_passenger" />
    <trip id="T1534" depart="25358" from="91399077#2" to="571282032#0" type="T_passenger" />
    <trip id="T1536" depart="25359" from="79536712#2" to="107286311#1" type="T_passenger" />
    <trip id="T1552" depart="25362" from="-824899554" to="-98356943#14" type="T_passenger" />
    <trip id="T1576" depart="25365" from="79536842#1" to="-79536777#0" type="T_passenger" />
    <trip id="T1584" depart="25366" from="79537405#0" to="821645302" type="T_passenger" />
    <trip id="T1585" depart="25367" from="-108333892#1" to="-79091658" type="T_passenger" />
    <trip id="T1597" depart="25368" from="-79536867#1" to="-91758562#3" type="T_passenger" />
    <trip id="T1602" depart="25369" from="-107286371#1" to="79536007#1" type="T_passenger" />
    <trip id="T1629" depart="25373" from="48377232" to="-78518809#2" type="T_passenger" />
    <trip id="T1641" depart="25374" from="-79537508" to="79536168#1" type="T_passenger" />
    <trip id="T1659" depart="25375" from="247478994#0" to="79535632#0" type="T_passenger" />
    <trip id="T1680" depart="25378" from="79091762#3" to="571282029#2" type="T_passenger" />
    <trip id="T1686" depart="25380" from="633036930#2" to="-107286378" type="T_passenger" />
    <trip id="T1692" depart="25381" from="73569165#5" to="-79536782#1" type="T_passenger" />
    <trip id="T1701" depart="25382" from="247536000#5" to="-79091819" type="T_passenger" />
    <trip id="T1718" depart="25384" from="571423419#1" to="821637862" type="T_passenger" />
    <trip id="T1730" depart="25386" from="-822321071#0" to="-108333920#1" type="T_passenger" />
    <trip id="T1734" depart="25387" from="-92023674#1" to="-247462319#5" type="T_passenger" />
    <trip id="T1750" depart="25390" from="91399066#4" to="-247462354" type="T_passenger" />
    <trip id="T1757" depart="25392" from="-49156617#5" to="102150869#5" type="T_passenger" />
    <trip id="T1759" depart="25393" from="-48259161#2" to="571387195#2" type="T_passenger" />
    <trip id="T1767" depart="25394" from="788589580#2" to="-571371652" type="T_passenger" />
    <trip id="T1787" depart="25397" from="824631908#0" to="-78335742#3" type="T_passenger" />
    <trip id="T1792" depart="25399" from="91859835" to="824600077" type="T_passenger" />
    <trip id="T1809" depart="25403" from="79091878" to="79537346#3" type="T_passenger" />
    <trip id="T1822" depart="25404" from="-79092015#2" to="79536112#2" type="T_passenger" />
    <trip id="T1828" depart="25405" from="-79535889#0" to="572102640#5" type="T_passenger" />
    <trip id="T1841" depart="25407" from="78335883#3" to="-74740744#8" type="T_passenger" />
    <trip id="T1868" depart="25410" from="-76503800" to="88750499#1" type="T_passenger" />
    <trip id="T1873" depart="25411" from="435398046#0" to="78518721" type="T_passenger" />
    <trip id="T1932" depart="25414" from="821658037" to="-297923435#10" type="T_passenger" />
    <trip id="T1944" depart="25416" from="73573111#1" to="79537471" type="T_passenger" />
    <trip id="T1954" depart="25418" from="822235833#4" to="-824659716" type="T_passenger" />
    <trip id="T1959" depart="25419" from="79537039#2" to="-79536641#0" type="T_passenger" />
    <trip id="T1982" depart="25423" from="503110289#2" to="48514961#14" type="T_passenger" />
    <trip id="T1990" depart="25424" from="670025444#1" to="-79536654#1" type="T_passenger" />
    <trip id="T1997" depart="25426" from="-48514961#12" to="247535997" type="T_passenger" />
    <trip id="T2015" depart="25428" from="79536046#2" to="49157412#12" type="T_passenger" />
    <trip id="T2020" depart="25429" from="-79535963#0" to="79711727#14" type="T_passenger" />
    <trip id="T2030" depart="25430" from="107286406#7" to="78335879#0" type="T_passenger" />
    <trip id="T2031" depart="25431" from="-654330812#2" to="-79091885#2" type="T_passenger" />
    <trip id="T2035" depart="25433" from="90972280#4-AddedOnRampEdge" to="-1005778647#2" type="T_passenger" />
    <trip id="T2042" depart="25435" from="78518718#3" to="571374836#2" type="T_passenger" />
    <trip id="T2068" depart="25437" from="79092099#5" to="79092028#3" type="T_passenger" />
    <trip id="T2088" depart="25438" from="-530397321#2" to="824631903" type="T_passenger" />
    <trip id="T2117" depart="25441" from="-572108386#1" to="893392726#0" type="T_passenger" />
    <trip id="T2121" depart="25442" from="297923435#12" to="79091722#1" type="T_passenger" />
    <trip id="T2138" depart="25443" from="572102640#4" to="-582809727" type="T_passenger" />
    <trip id="T2161" depart="25445" from="-571428722#1" to="79537269#2" type="T_passenger" />
    <trip id="T2178" depart="25448" from="824633820#7" to="88520171#11" type="T_passenger" />
    <trip id="T2185" depart="25449" from="-869736348" to="-88750495#1" type="T_passenger" />
    <trip id="T2207" depart="25452" from="180646049#1" to="-79091652#4" type="T_passenger" />
    <trip id="T2224" depart="25455" from="-79536653#0" to="-571386790#2" type="T_passenger" />
    <trip id="T2255" depart="25458" from="247536020#10" to="48376975#0" type="T_passenger" />
    <trip id="T2264" depart="25459" from="78335820#4" to="-79536380" type="T_passenger" />
    <trip id="T2276" depart="25460" from="-48514961#23" to="79091753#1" type="T_passenger" />
    <trip id="T2277" depart="25461" from="419628717#0" to="-78518799#1" type="T_passenger" />
    <trip id="T2283" depart="25463" from="74842970#3" to="821882277" type="T_passenger" />
    <trip id="T2300" depart="25465" from="79537480#1" to="-107286399" type="T_passenger" />
    <trip id="T2303" depart="25466" from="48205267#1" to="824644031" type="T_passenger" />
    <trip id="T2314" depart="25468" from="-79537346#4" to="79091811#0" type="T_passenger" />
    <trip id="T2337" depart="25470" from="571384850#1" to="79091851#0" type="T_passenger" />
    <trip id="T2345" depart="25471" from="571384859#1" to="95413423#2" type="T_passenger" />
    <trip id="T2349" depart="25472" from="79091963#4" to="79537544#1" type="T_passenger" />
    <trip id="T2385" depart="25474" from="-572984709" to="821950257#3" type="T_passenger" />
    <trip id="T2391" depart="25475" from="822336456#3" to="-821946961" type="T_passenger" />
    <trip id="T2409" depart="25478" from="79092002#2" to="571831867#0" type="T_passenger" />
    <trip id="T2413" depart="25479" from="78046858#4" to="247536001#2" type="T_passenger" />
    <trip id="T2416" depart="25480" from="79537431#0" to="247557155#1" type="T_passenger" />
    <trip id="T2424" depart="25483" from="247478997#5" to="-821929834#1" type="T_passenger" />
    <trip id="T2464" depart="25487" from="572010370" to="-571383075#1" type="T_passenger" />
    <trip id="T2508" depart="25490" from="-96319730" to="-821965450#2" type="T_passenger" />
    <trip id="T2565" depart="25498" from="78335847#14" to="-79537183#5" type="T_passenger" />
    <trip id="T2579" depart="25500" from="79536608#1" to="824631457" type="T_passenger" />
    <trip id="T2598" depart="25502" from="-824670784" to="-823976214#2" type="T_passenger" />
    <trip id="T2607" depart="25503" from="-78046823" to="88750495#0" type="T_passenger" />
    <trip id="T2617" depart="25506" from="-78335863#2" to="78046882#1" type="T_passenger" />
    <trip id="T2619" depart="25507" from="824288455#1" to="-80175356#3" type="T_passenger" />
    <trip id="T2640" depart="25508" from="95413423#3" to="-47997594#5" type="T_passenger" />
    <trip id="T2641" depart="25509" from="573845943#2" to="107286295#1" type="T_passenger" />
    <trip id="T2650" depart="25511" from="47913079#4" to="-824896876#2" type="T_passenger" />
    <trip id="T2662" depart="25513" from="-247462391#1" to="-824304035#0" type="T_passenger" />
    <trip id="T2751" depart="25521" from="79536704#2" to="247540439#14" type="T_passenger" />
    <trip id="T2770" depart="25524" from="96379259" to="-111796790#6" type="T_passenger" />
    <trip id="T2784" depart="25525" from="48981800#0" to="79536820#4" type="T_passenger" />
    <trip id="T2804" depart="25526" from="79536418#1" to="79535856#3" type="T_passenger" />
    <trip id="T2873" depart="25532" from="-824636098#4" to="247462398#1" type="T_passenger" />
    <trip id="T2886" depart="25533" from="48259118#0" to="-247536048#0" type="T_passenger" />
    <trip id="T2900" depart="25535" from="79536309#7" to="88371825#0" type="T_passenger" />
    <trip id="T2908" depart="25536" from="361051697#0" to="572146504#1" type="T_passenger" />
    <trip id="T2948" depart="25541" from="-572037590#0" to="48376054#20" type="T_passenger" />
    <trip id="T2965" depart="25544" from="79091716#0" to="142724435" type="T_passenger" />
    <trip id="T2984" depart="25546" from="-79536180#4" to="88750495#2" type="T_passenger" />
    <trip id="T2986" depart="25547" from="633036931" to="821939993#0" type="T_passenger" />
    <trip id="T3004" depart="25549" from="-78046884#6" to="-48514961#16" type="T_passenger" />
    <trip id="T3046" depart="25551" from="-48562986#3" to="49157412#14" type="T_passenger" />
    <trip id="T3053" depart="25552" from="48870204#7" to="108452875#3" type="T_passenger" />
    <trip id="T3074" depart="25556" from="-48981811#0" to="824641787#2" type="T_passenger" />
    <trip id="T3095" depart="25559" from="79536137#1" to="-79091750#0" type="T_passenger" />
    <trip id="T3130" depart="25563" from="-824648947#15" to="-92022561#1" type="T_passenger" />
    <trip id="T3166" depart="25568" from="626983745#12" to="-79536399#2" type="T_passenger" />
    <trip id="T3170" depart="25569" from="155343009#0" to="48399843#6" type="T_passenger" />
    <trip id="T3230" depart="25574" from="572027724#4" to="-821580501#1" type="T_passenger" />
    <trip id="T3232" depart="25575" from="297382759#5" to="91399039#0" type="T_passenger" />
    <trip id="T3258" depart="25577" from="96321145#2" to="-79537183#1" type="T_passenger" />
    <trip id="T3265" depart="25579" from="-571465480#4" to="-821908860#5" type="T_passenger" />
    <trip id="T3269" depart="25581" from="-48509139#10" to="-247478997#2" type="T_passenger" />
    <trip id="T3270" depart="25582" from="-821874475#8" to="-79535768#3" type="T_passenger" />
    <trip id="T3292" depart="25584" from="633072643#3" to="79536375#3" type="T_passenger" />
    <trip id="T3346" depart="25587" from="107286311#1" to="822251323" type="T_passenger" />
    <trip id="T3400" depart="25590" from="821913472#1" to="107286303#3" type="T_passenger" />
    <trip id="T3407" depart="25591" from="-821907606" to="571386402" type="T_passenger" />
    <trip id="T3409" depart="25592" from="-571428721" to="-79537460#2" type="T_passenger" />
    <trip id="T3414" depart="25594" from="571423420#0" to="-79537176#7" type="T_passenger" />
    <trip id="T3472" depart="25603" from="-79091673#7" to="48268641#2" type="T_passenger" />
    <trip id="T3489" depart="25604" from="-247462336#0" to="701697837#1" type="T_passenger" />
    <trip id="T3519" depart="25608" from="540970674#1" to="1007213038" type="T_passenger" />
    <trip id="T3532" depart="25609" from="79535874#2" to="247535987#3" type="T_passenger" />
    <trip id="T3596" depart="25612" from="-79537350" to="-96319778#1" type="T_passenger" />
    <trip id="T3598" depart="25613" from="48205267#3" to="-79537102#1" type="T_passenger" />
    <trip id="T3611" depart="25615" from="79092002#2" to="48205268" type="T_passenger" />
    <trip id="T3612" depart="25616" from="79536002" to="633072647#7" type="T_passenger" />
    <trip id="T3651" depart="25618" from="-1005547411" to="-79091682#0" type="T_passenger" />
    <trip id="T3658" depart="25620" from="247462348#4" to="79536651#3" type="T_passenger" />
    <trip id="T3705" depart="25621" from="90972272#11" to="572027724#4" type="T_passenger" />
    <trip id="T3716" depart="25622" from="-108333920#2" to="-571374847#0" type="T_passenger" />
    <trip id="T3722" depart="25624" from="-821908860#1" to="48395930#1" type="T_passenger" />
    <trip id="T3733" depart="25625" from="-572106607#8" to="824638089" type="T_passenger" />
    <trip id="T3742" depart="25626" from="79537410#1" to="91393348#5" type="T_passenger" />
    <trip id="T3745" depart="25627" from="74433340#0" to="-247536020#10" type="T_passenger" />
    <trip id="T3759" depart="25630" from="-571835444" to="-47909390#0" type="T_passenger" />
    <trip id="T3761" depart="25631" from="48562292#1" to="247478955#1" type="T_passenger" />
    <trip id="T3775" depart="25632" from="-79536614#7" to="78518809#0" type="T_passenger" />
    <trip id="T3779" depart="25633" from="-79537314#1" to="79536905#1" type="T_passenger" />
    <trip id="T3781" depart="25634" from="-91405620#2" to="49188674" type="T_passenger" />
    <trip id="T3795" depart="25636" from="-102150872#3" to="79536704#0" type="T_passenger" />
    <trip id="T3800" depart="25638" from="-107286405#0" to="79536123" type="T_passenger" />
    <trip id="T3812" depart="25640" from="247478989#0" to="-78518701#0" type="T_passenger" />
    <trip id="T3843" depart="25644" from="-79536611#0" to="572146634#2" type="T_passenger" />
    <trip id="T3846" depart="25645" from="-79091805#1" to="268532187#1" type="T_passenger" />
    <trip id="T3875" depart="25647" from="79535639#7" to="79535705#0" type="T_passenger" />
    <trip id="T3907" depart="25648" from="572152396" to="-79535667#3" type="T_passenger" />
    <trip id="T3913" depart="25649" from="-824644034" to="-79537529" type="T_passenger" />
    <trip id="T3931" depart="25651" from="-572102387#1" to="-79091780" type="T_passenger" />
    <trip id="T3932" depart="25652" from="-48268326#9" to="571301430#1" type="T_passenger" />
    <trip id="T3938" depart="25653" from="-79536872#3" to="176274684#1" type="T_passenger" />
    <trip id="T3953" depart="25655" from="176539406#20" to="-74740744#5" type="T_passenger" />
    <trip id="T3989" depart="25658" from="-88750486#0" to="-821229025#2" type="T_passenger" />
    <trip id="T3996" depart="25661" from="-78046881#3" to="88520194" type="T_passenger" />
    <trip id="T3997" depart="25662" from="108333876#2" to="79536767#7" type="T_passenger" />
    <trip id="T4006" depart="25664" from="247462332" to="78046810#16" type="T_passenger" />
    <trip id="T4026" depart="25666" from="571386803" to="74918639#2" type="T_passenger" />
    <trip id="T4041" depart="25668" from="79537496#0" to="375276880#3" type="T_passenger" />
    <trip id="T4049" depart="25669" from="-48243128#2" to="108333937#11" type="T_passenger" />
    <trip id="T4067" depart="25670" from="79091856#8" to="-571377955#10" type="T_passenger" />
    <trip id="T4103" depart="25673" from="48509139#3" to="79536600#2" type="T_passenger" />
    <trip id="T4115" depart="25676" from="91758562#3" to="-78335808#0" type="T_passenger" />
    <trip id="T4117" depart="25677" from="627284435#2" to="571305144#0" type="T_passenger" />
    <trip id="T4148" depart="25681" from="-571395008" to="-79091807#4" type="T_passenger" />
    <trip id="T4156" depart="25683" from="79535889#4" to="74918639#7" type="T_passenger" />
    <trip id="T4157" depart="25684" from="107286392#4" to="49157405#0" type="T_passenger" />
    <trip id="T4249" depart="25690" from="-821972518#2" to="-49157406#3" type="T_passenger" />
    <trip id="T4266" depart="25691" from="-79536309#4" to="107286346#0" type="T_passenger" />
    <trip id="T4295" depart="25694" from="-821891977" to="247536035#3" type="T_passenger" />
    <trip id="T4327" depart="25697" from="-247540439#11" to="107286315#1" type="T_passenger" />
    <trip id="T4329" depart="25698" from="-107286387#1" to="571377955#3" type="T_passenger" />
    <trip id="T4348" depart="25701" from="824644535#7" to="-79536782#8" type="T_passenger" />
    <trip id="T4369" depart="25706" from="-626983748" to="-79535632#1" type="T_passenger" />
    <trip id="T4391" depart="25712" from="78335869" to="-79091756#0" type="T_passenger" />
    <trip id="T4410" depart="25715" from="821939993#9" to="571387978" type="T_passenger" />
    <trip id="T4448" depart="25720" from="-572027724#0" to="894445548" type="T_passenger" />
    <trip id="T4452" depart="25721" from="73573116" to="-247557155#1" type="T_passenger" />
    <trip id="T4465" depart="25722" from="-107286283#1" to="79537149#1" type="T_passenger" />
    <trip id="T4468" depart="25723" from="824623876" to="366015251#0" type="T_passenger" />
    <trip id="T4473" depart="25724" from="571387977" to="-79091941#3" type="T_passenger" />
    <trip id="T4491" depart="25727" from="88370695" to="-102150886#1" type="T_passenger" />
    <trip id="T4541" depart="25732" from="-247555570#1" to="-91859818#3" type="T_passenger" />
    <trip id="T4544" depart="25733" from="821961692#1" to="247478951#3" type="T_passenger" />
    <trip id="T4599" depart="25736" from="1007399637#0" to="-78335741#3" type="T_passenger" />
    <trip id="T4632" depart="25738" from="48399843#19" to="-572016077#0" type="T_passenger" />
    <trip id="T4651" depart="25741" from="79535856#2" to="79536145#0" type="T_passenger" />
    <trip id="T4659" depart="25743" from="247535972#1" to="-824659718" type="T_passenger" />
    <trip id="T4660" depart="25744" from="79537093#31" to="-92022563#4" type="T_passenger" />
    <trip id="T4682" depart="25746" from="79091859#2" to="28160547#3" type="T_passenger" />
    <trip id="T4749" depart="25751" from="-571387978" to="798463623" type="T_passenger" />
    <trip id="T4767" depart="25753" from="-79711737#2" to="232897250#4" type="T_passenger" />
    <trip id="T4858" depart="25758" from="74842970#4" to="79535785#1" type="T_passenger" />
    <trip id="T4862" depart="25759" from="-419621882" to="-79091941#2" type="T_passenger" />
    <trip id="T4895" depart="25761" from="-247535953#2" to="79091882#0" type="T_passenger" />
    <trip id="T4903" depart="25762" from="247478951#0" to="78335748" type="T_passenger" />
    <trip id="T4906" depart="25763" from="-48514961#20" to="-79091783#0" type="T_passenger" />
    <trip id="T4938" depart="25766" from="79092004" to="-797558187" type="T_passenger" />
    <trip id="T4941" depart="25767" from="189083681#3" to="74918639#4" type="T_passenger" />
    <trip id="T4987" depart="25773" from="91393351#1" to="-259815365#0" type="T_passenger" />
    <trip id="T5002" depart="25777" from="-108452875#0" to="91859870#2" type="T_passenger" />
    <trip id="T5029" depart="25780" from="-821961691#1" to="74842967#1" type="T_passenger" />
    <trip id="T5048" depart="25784" from="91859802#3" to="78335874#0" type="T_passenger" />
    <trip id="T5050" depart="25785" from="-571298356#2" to="30517180#2" type="T_passenger" />
    <trip id="T5051" depart="25786" from="-108333971#2" to="-79537023#1" type="T_passenger" />
    <trip id="T5120" depart="25791" from="79536930#1" to="-108333965#9" type="T_passenger" />
    <trip id="T5127" depart="25792" from="79537314#0" to="47913079#5" type="T_passenger" />
    <trip id="T5136" depart="25793" from="821524259" to="-824662355" type="T_passenger" />
    <trip id="T5138" depart="25794" from="824304035#0" to="73573117#2" type="T_passenger" />
    <trip id="T5141" depart="25795" from="79536844#2" to="-571426125" type="T_passenger" />
    <trip id="T5161" depart="25796" from="48981804#1" to="572034805#2" type="T_passenger" />
    <trip id="T5212" depart="25802" from="79536146#5" to="-821874475#1" type="T_passenger" />
    <trip id="T5226" depart="25804" from="-79536206#1" to="-890223195" type="T_passenger" />
    <trip id="T5233" depart="25805" from="247462360#0" to="-48562548#1" type="T_passenger" />
    <trip id="T5240" depart="25807" from="78335847#3" to="79535874#15" type="T_passenger" />
    <trip id="T5254" depart="25809" from="571476629" to="88520171#5" type="T_passenger" />
    <trip id="T5256" depart="25810" from="551105959#10" to="-107286381#1" type="T_passenger" />
    <trip id="T5268" depart="25813" from="-107286371#1" to="84247684#4" type="T_passenger" />
    <trip id="T5283" depart="25814" from="-79711746#1" to="-821911214" type="T_passenger" />
    <trip id="T5293" depart="25815" from="-824638093" to="48287809#3" type="T_passenger" />
    <trip id="T5294" depart="25816" from="-540970676#5" to="-79091995#3" type="T_passenger" />
    <trip id="T5306" depart="25817" from="-79711727#7" to="-822235833#1" type="T_passenger" />
    <trip id="T5316" depart="25820" from="78335807#6" to="-88740943#1" type="T_passenger" />
    <trip id="T5319" depart="25821" from="107286315#0" to="91405620#1" type="T_passenger" />
    <trip id="T5330" depart="25822" from="571377484#0" to="79091680#2" type="T_passenger" />
    <trip id="T5335" depart="25823" from="375276880#7" to="79537093#15" type="T_passenger" />
    <trip id="T5338" depart="25825" from="91859777" to="-821515472#1" type="T_passenger" />
    <trip id="T5395" depart="25829" from="247478998#4" to="247535966#4" type="T_passenger" />
    <trip id="T5404" depart="25831" from="445512536#19" to="91908572#3" type="T_passenger" />
    <trip id="T5409" depart="25832" from="48563009#1" to="88370696#3" type="T_passenger" />
    <trip id="T5412" depart="25833" from="74920160#4" to="-247536020#11" type="T_passenger" />
    <trip id="T5431" depart="25836" from="79091952" to="-572102378" type="T_passenger" />
    <trip id="T5436" depart="25837" from="-78046843#1" to="-79537496#4" type="T_passenger" />
    <trip id="T5437" depart="25838" from="78335756#2" to="-79536654#1" type="T_passenger" />
    <trip id="T5469" depart="25841" from="821961697#2" to="376279911#6" type="T_passenger" />
    <trip id="T5472" depart="25842" from="-108333885" to="419628716#9" type="T_passenger" />
    <trip id="T5473" depart="25843" from="824636098#0" to="821902702" type="T_passenger" />
    <trip id="T5475" depart="25844" from="-78518728#0" to="914815349#2" type="T_passenger" />