<?xml version="1.0" encoding="UTF-8"?>

<!-- generated on 01/24/18 16:50:58 by SUMO duarouter Version 0.27.1
<?xml version="1.0" encoding="UTF-8"?>

<configuration xmlns:xsi="http://www.w3.org/2001/XMLSchema-instance" xsi:noNamespaceSchemaLocation="http://sumo.dlr.de/xsd/duarouterConfiguration.xsd">


____________________________________________________

</configuration>
-->

<routes xmlns:xsi="http://www.w3.org/2001/XMLSchema-instance" xsi:noNamespaceSchemaLocation="http://sumo.dlr.de/xsd/routes_file.xsd">

        <vType id="VAN" guiShape="bus" length="6.5" width="2.16" height="2.86" minGap="2.5" accel="2.6" decel="4.5" maxSpeed="55.55" color="255,12,0"> 

        <param key="has.battery.device" value="true"/>
        <!-- <param key="maximumBatteryCapacity" value="324000"/> this is an old parameter--> 
		<param key="device.battery.capacity" value="324000"/>
		<!-- <param key="actualBatteryCapacity" value="243000"/> this is an old parameter -->
		<param key="device.battery.chargeLevel" value="243000"/>
        <param key="maximumPower" value="10000"/>
        <param key="vehicleMass" value="15000"/>
        <param key="frontSurfaceArea" value="5"/>
        <param key="airDragCoefficient" value="0.6"/>
        <param key="rotatingMass" value="100"/>
        <param key="radialDragCoefficient" value="0.5"/>
        <param key="rollDragCoefficient" value="0.01"/>
        <param key="constantPowerIntake" value="100"/>
        <param key="propulsionEfficiency" value="0.9"/>
        <param key="recuperationEfficiency" value="0.9"/>
        <param key="stoppingThreshold" value="0.1"/>

        </vType>

			 <!-- <route id="Ruta_VAN" edges="E0
				-107286392#4">
             </route> -->

			 <!-- <vehicle id="Delivery_01" route="Ruta_VAN" type="VAN" depart="0.00" departPos="0.00"> 

			 </vehicle> -->

			 <!-- <route id="Ruta_VAN_1" edges="-107286392#4
				695866286">
             </route> -->

			 <!-- <vehicle id="1" route="Ruta_VAN_1" type="VAN" depart="0.00" departPos="0.00"> 

			 </vehicle> -->
			 
            
</routes>