<routes xmlns:xsi="http://www.w3.org/2001/XMLSchema-instance" xsi:noNamespaceSchemaLocation="http://sumo.dlr.de/xsd/routes_file.xsd">
    <vType id="P_passenger" vClass="passenger" />
    <trip id="P21" depart="25200" from="-79091914#2" to="-79537358#6" type="P_passenger" />
    <trip id="P47" depart="25203" from="-247536000#0" to="-894445546#1" type="P_passenger" />
    <trip id="P51" depart="25205" from="78046810#11" to="48205258" type="P_passenger" />
    <trip id="P62" depart="25207" from="-1002494232#1" to="-821913473" type="P_passenger" />
    <trip id="P108" depart="25210" from="48205263" to="79091706#1" type="P_passenger" />
    <trip id="P128" depart="25212" from="-247555572#0" to="-79091869#3" type="P_passenger" />
    <trip id="P130" depart="25213" from="821528770#1" to="821642935" type="P_passenger" />
    <trip id="P132" depart="25214" from="79537023#2" to="78518739#1" type="P_passenger" />
    <trip id="P134" depart="25215" from="633036932#1" to="-102150869#2" type="P_passenger" />
    <trip id="P135" depart="25216" from="79536679#0" to="-79711727#7" type="P_passenger" />
    <trip id="P150" depart="25219" from="821970511#3" to="48268814#0" type="P_passenger" />
    <trip id="P161" depart="25221" from="79536509#1" to="821658037" type="P_passenger" />
    <trip id="P174" depart="25223" from="573331704#0" to="1002495705" type="P_passenger" />
    <trip id="P192" depart="25225" from="-894445547#1" to="-79537518#1" type="P_passenger" />
    <trip id="P206" depart="25226" from="76391866#3-AddedOnRampEdge" to="-79092002#0" type="P_passenger" />
    <trip id="P207" depart="25227" from="-78518743#1" to="-107286419#7" type="P_passenger" />
    <trip id="P213" depart="25228" from="633036941#6" to="-1006125763" type="P_passenger" />
    <trip id="P215" depart="25230" from="-530397321#0" to="107286383#0" type="P_passenger" />
    <trip id="P226" depart="25231" from="247350783#1" to="-79536463#1" type="P_passenger" />
    <trip id="P227" depart="25232" from="-79535774#3" to="626983749#2" type="P_passenger" />
    <trip id="P239" depart="25234" from="79537494#3" to="79535667#5" type="P_passenger" />
    <trip id="P264" depart="25240" from="-107286371#6" to="-688682283#4" type="P_passenger" />
    <trip id="P265" depart="25241" from="-571387195#5" to="78046784#1" type="P_passenger" />
    <trip id="P338" depart="25245" from="79091816#3" to="88520171#2" type="P_passenger" />
    <trip id="P358" depart="25248" from="-176539406#0" to="108333877#2" type="P_passenger" />
    <trip id="P361" depart="25249" from="79537083#1" to="49156616" type="P_passenger" />
    <trip id="P377" depart="25253" from="935787571#2" to="74918635#15" type="P_passenger" />
    <trip id="P381" depart="25254" from="79091986" to="-79091765#0" type="P_passenger" />
    <trip id="P411" depart="25255" from="74433855#1" to="79536877#1" type="P_passenger" />
    <trip id="P430" depart="25257" from="821216342#0" to="142724417#1" type="P_passenger" />
    <trip id="P458" depart="25261" from="572115244#3" to="572102642#1" type="P_passenger" />
    <trip id="P469" depart="25262" from="79536925#5" to="-79536409#1" type="P_passenger" />
    <trip id="P494" depart="25263" from="79091832#4" to="-74740744#0" type="P_passenger" />
    <trip id="P499" depart="25265" from="88528645#2" to="79711727#20" type="P_passenger" />
    <trip id="P507" depart="25266" from="79535979#5" to="-79536018#3" type="P_passenger" />
    <trip id="P511" depart="25267" from="798934038#0" to="-821944352#2" type="P_passenger" />
    <trip id="P524" depart="25270" from="88520161#2" to="-232848628#1" type="P_passenger" />
    <trip id="P526" depart="25271" from="366015251#2" to="247462337#0" type="P_passenger" />
    <trip id="P564" depart="25276" from="-79536350#1" to="-78335809#5" type="P_passenger" />
    <trip id="P572" depart="25277" from="-824634543" to="79091727#1" type="P_passenger" />
    <trip id="P583" depart="25278" from="-88528655#0" to="571377955#6" type="P_passenger" />
    <trip id="P585" depart="25279" from="-79091732#1" to="-572108386#2" type="P_passenger" />
    <trip id="P613" depart="25280" from="79091941#3" to="79092049#2" type="P_passenger" />
    <trip id="P617" depart="25281" from="572017438#4" to="-633036941#3" type="P_passenger" />
    <trip id="P630" depart="25282" from="-572152394#9" to="-247535963#3" type="P_passenger" />
    <trip id="P645" depart="25283" from="-572102387#0" to="-824631909#1" type="P_passenger" />
    <trip id="P672" depart="25286" from="79537043#1" to="-869736318" type="P_passenger" />
    <trip id="P687" depart="25287" from="-247462398#1" to="366015251#2" type="P_passenger" />
    <trip id="P722" depart="25291" from="572102640#4" to="79536714#1" type="P_passenger" />
    <trip id="P723" depart="25292" from="-247535994" to="79535904" type="P_passenger" />
    <trip id="P730" depart="25294" from="-822235833#4" to="79536018#3" type="P_passenger" />
    <trip id="P802" depart="25300" from="551105959#3" to="79537358#2" type="P_passenger" />
    <trip id="P806" depart="25302" from="627284440#2" to="79535701" type="P_passenger" />
    <trip id="P811" depart="25303" from="78046842#0" to="-79711716#1" type="P_passenger" />
    <trip id="P815" depart="25304" from="-79711747#3" to="79091706#0" type="P_passenger" />
    <trip id="P831" depart="25305" from="-821969134" to="-247462355#1" type="P_passenger" />
    <trip id="P859" depart="25307" from="79536213#1" to="79091756#1" type="P_passenger" />
    <trip id="P866" depart="25308" from="79537158#4" to="-627284437#0" type="P_passenger" />
    <trip id="P868" depart="25309" from="88520196#0" to="-571284422#2" type="P_passenger" />
    <trip id="P876" depart="25310" from="375278864#2" to="-821580501#1" type="P_passenger" />
    <trip id="P880" depart="25311" from="580597469#3" to="78335833#0" type="P_passenger" />
    <trip id="P888" depart="25313" from="-79536600#1" to="-571388684#3" type="P_passenger" />
    <trip id="P904" depart="25317" from="48135967#13" to="824648947#12" type="P_passenger" />
    <trip id="P927" depart="25318" from="79536093#0" to="48562991#0" type="P_passenger" />
    <trip id="P928" depart="25319" from="79091961#2" to="-78335727#1" type="P_passenger" />
    <trip id="P941" depart="25320" from="821939993#14" to="78518742" type="P_passenger" />
    <trip id="P944" depart="25321" from="571377955#6" to="-79091943" type="P_passenger" />
    <trip id="P953" depart="25322" from="-297923440#4" to="48514961#21" type="P_passenger" />
    <trip id="P963" depart="25324" from="79536409#1" to="79091740#0" type="P_passenger" />
    <trip id="P1029" depart="25326" from="-79091672#0" to="824360503#1" type="P_passenger" />
    <trip id="P1035" depart="25329" from="176539406#4" to="79537300" type="P_passenger" />
    <trip id="P1057" depart="25331" from="-824639467#0" to="572098376" type="P_passenger" />
    <trip id="P1085" depart="25334" from="821950258#6" to="48514961#13" type="P_passenger" />
    <trip id="P1097" depart="25335" from="107286309#6" to="79537269#4" type="P_passenger" />
    <trip id="P1147" depart="25338" from="-79537102#1" to="78335829#0" type="P_passenger" />
    <trip id="P1165" depart="25342" from="-107286280#1" to="-79536455#2" type="P_passenger" />
    <trip id="P1181" depart="25343" from="78046716#3" to="-78046813#2" type="P_passenger" />
    <trip id="P1186" depart="25344" from="-78046914" to="627284435#4" type="P_passenger" />
    <trip id="P1205" depart="25347" from="247557147#0" to="107286309#3" type="P_passenger" />
    <trip id="P1221" depart="25348" from="-77767453#4" to="247462329#3" type="P_passenger" />
    <trip id="P1227" depart="25349" from="79091646#1" to="48287809#1" type="P_passenger" />
    <trip id="P1231" depart="25350" from="108333857#5" to="-824625192#1" type="P_passenger" />
    <trip id="P1286" depart="25351" from="1005490559" to="-572101143" type="P_passenger" />
    <trip id="P1288" depart="25352" from="79091732#0" to="-503110275#11" type="P_passenger" />
    <trip id="P1291" depart="25353" from="79091935#1" to="-572102387#1" type="P_passenger" />
    <trip id="P1293" depart="25354" from="414493940#5" to="-102150886#1" type="P_passenger" />
    <trip id="P1325" depart="25357" from="571384857#0" to="-79536993#3" type="P_passenger" />
    <trip id="P1350" depart="25359" from="-49156619#0" to="48981808#2" type="P_passenger" />
    <trip id="P1358" depart="25362" from="1002492303#9" to="-821907224#0" type="P_passenger" />
    <trip id="P1361" depart="25363" from="-824638094" to="366015251#3" type="P_passenger" />
    <trip id="P1366" depart="25364" from="79537229#7" to="-821939995#4" type="P_passenger" />
    <trip id="P1372" depart="25365" from="-78335854#1" to="821963513#0" type="P_passenger" />
    <trip id="P1390" depart="25368" from="90972280#0" to="-79535816#5" type="P_passenger" />
    <trip id="P1405" depart="25371" from="-48268326#1" to="-79536145#7" type="P_passenger" />
    <trip id="P1407" depart="25372" from="78046716#4" to="-79536508#2" type="P_passenger" />
    <trip id="P1457" depart="25377" from="-78335765" to="935787571#2" type="P_passenger" />
    <trip id="P1458" depart="25378" from="821560548#1" to="247557943" type="P_passenger" />
    <trip id="P1472" depart="25379" from="-572017438#1" to="-77767450#2" type="P_passenger" />
    <trip id="P1486" depart="25381" from="48357657#1" to="824676188#1" type="P_passenger" />
    <trip id="P1511" depart="25383" from="821900518#2" to="-77767446" type="P_passenger" />
    <trip id="P1515" depart="25385" from="-79536302#1" to="-79537158#3" type="P_passenger" />
    <trip id="P1526" depart="25387" from="-48268326#0" to="48268365#7" type="P_passenger" />
    <trip id="P1563" depart="25390" from="-824669573#2" to="247549480#0" type="P_passenger" />
    <trip id="P1574" depart="25392" from="798416902#4" to="-572103728" type="P_passenger" />
    <trip id="P1584" depart="25394" from="79537405#0" to="821645302" type="P_passenger" />
    <trip id="P1607" depart="25396" from="-79537469#1" to="91387725#0" type="P_passenger" />
    <trip id="P1617" depart="25398" from="-247536000#5" to="95405421#0" type="P_passenger" />
    <trip id="P1619" depart="25399" from="-79536146#17" to="79091648#6" type="P_passenger" />
    <trip id="P1643" depart="25401" from="-79537176#3" to="79537520#7" type="P_passenger" />
    <trip id="P1658" depart="25403" from="-78046716#0" to="79535639#5" type="P_passenger" />
    <trip id="P1676" depart="25405" from="-823965096" to="-78518762#0" type="P_passenger" />
    <trip id="P1686" depart="25406" from="633036930#2" to="-107286378" type="P_passenger" />
    <trip id="P1687" depart="25407" from="78046873#4" to="107286303#0" type="P_passenger" />
    <trip id="P1695" depart="25410" from="79091643#0" to="-571384850#0" type="P_passenger" />
    <trip id="P1702" depart="25411" from="824662356" to="-821950258#6" type="P_passenger" />
    <trip id="P1734" depart="25415" from="-92023674#1" to="-247462319#5" type="P_passenger" />
    <trip id="P1748" depart="25417" from="798923790" to="-259815365#3" type="P_passenger" />
    <trip id="P1762" depart="25418" from="76256886#0" to="88528638#3" type="P_passenger" />
    <trip id="P1785" depart="25421" from="824673480" to="79537271" type="P_passenger" />
    <trip id="P1795" depart="25423" from="108333920#0" to="-572102640#0" type="P_passenger" />
    <trip id="P1871" depart="25429" from="79535673#1" to="819578582#4" type="P_passenger" />
    <trip id="P1915" depart="25436" from="-571390432" to="74842970#0" type="P_passenger" />
    <trip id="P1927" depart="25438" from="-822321071#2" to="-819578580#1" type="P_passenger" />
    <trip id="P1955" depart="25442" from="176539406#9" to="247350784#2" type="P_passenger" />
    <trip id="P1959" depart="25444" from="79537039#2" to="-79536641#0" type="P_passenger" />
    <trip id="P1961" depart="25445" from="633036930#4" to="-824678522#0" type="P_passenger" />
    <trip id="P1984" depart="25448" from="73569155#2" to="-79537193#2" type="P_passenger" />
    <trip id="P2077" depart="25455" from="-79535803#1" to="-48399847#3" type="P_passenger" />
    <trip id="P2102" depart="25459" from="91859769#3" to="78335873#1" type="P_passenger" />
    <trip id="P2141" depart="25464" from="48377227#1" to="79537492#2" type="P_passenger" />
    <trip id="P2143" depart="25465" from="-79091919#3" to="-821657154#0" type="P_passenger" />
    <trip id="P2174" depart="25466" from="-79536137#1" to="-798416902#3" type="P_passenger" />
    <trip id="P2175" depart="25467" from="-1001615014" to="79536782#3" type="P_passenger" />
    <trip id="P2195" depart="25469" from="-78335745#2" to="-107286371#7" type="P_passenger" />
    <trip id="P2196" depart="25470" from="-247462351#2" to="48136202#2" type="P_passenger" />
    <trip id="P2222" depart="25471" from="-571291479#1" to="580597467" type="P_passenger" />
    <trip id="P2226" depart="25472" from="-180649334#0" to="79536086#1" type="P_passenger" />
    <trip id="P2227" depart="25473" from="247462312#3" to="571372358" type="P_passenger" />
    <trip id="P2237" depart="25474" from="107286336#0" to="-79091662#0" type="P_passenger" />
    <trip id="P2238" depart="25475" from="78046871#2" to="-824648947#13" type="P_passenger" />
    <trip id="P2266" depart="25477" from="-247549494#1" to="824650239" type="P_passenger" />
    <trip id="P2280" depart="25480" from="79091898#0" to="107286290#3" type="P_passenger" />
    <trip id="P2294" depart="25482" from="-79535975" to="894445546#4" type="P_passenger" />
    <trip id="P2325" depart="25484" from="-79091834#0" to="-247462355#1" type="P_passenger" />
    <trip id="P2327" depart="25485" from="107286399" to="571369182#0" type="P_passenger" />
    <trip id="P2331" depart="25487" from="48377225#1" to="-247462347#0" type="P_passenger" />
    <trip id="P2334" depart="25488" from="-571426122#3" to="-572106603#0" type="P_passenger" />
    <trip id="P2348" depart="25489" from="-78518764" to="-88527333" type="P_passenger" />
    <trip id="P2390" depart="25494" from="-573404379#1" to="91399066#3" type="P_passenger" />
    <trip id="P2399" depart="25498" from="824617659#1" to="-821874475#1" type="P_passenger" />
    <trip id="P2421" depart="25501" from="937918433#0" to="79092032" type="P_passenger" />
    <trip id="P2425" depart="25502" from="108452845#3" to="-79536116#3" type="P_passenger" />
    <trip id="P2458" depart="25504" from="79092076#0" to="824207779#2" type="P_passenger" />
    <trip id="P2462" depart="25505" from="1002494232#2" to="-821244986#1" type="P_passenger" />
    <trip id="P2474" depart="25506" from="48243126#0" to="79536993#0" type="P_passenger" />
    <trip id="P2496" depart="25509" from="824669572#1" to="92023679" type="P_passenger" />
    <trip id="P2509" depart="25511" from="48259280" to="626983749#12" type="P_passenger" />
    <trip id="P2524" depart="25512" from="79537043#0" to="-79711727#5" type="P_passenger" />
    <trip id="P2542" depart="25514" from="-107286419#13" to="247540440" type="P_passenger" />
    <trip id="P2559" depart="25518" from="-821221639#5" to="111796785#1" type="P_passenger" />
    <trip id="P2561" depart="25519" from="-79536600#3" to="-107286325#4" type="P_passenger" />
    <trip id="P2567" depart="25520" from="571374836#2" to="-822309860#1" type="P_passenger" />
    <trip id="P2570" depart="25521" from="-503110289#5" to="-247462401#2" type="P_passenger" />
    <trip id="P2578" depart="25522" from="167671619#2" to="-572040847" type="P_passenger" />
    <trip id="P2616" depart="25526" from="-87972295#0" to="49157412#12" type="P_passenger" />
    <trip id="P2618" depart="25527" from="-80175356#2" to="48563025#3" type="P_passenger" />
    <trip id="P2643" depart="25530" from="550629591" to="107286387#1" type="P_passenger" />
    <trip id="P2652" depart="25531" from="78335847#4" to="-571368906#1" type="P_passenger" />
    <trip id="P2694" depart="25535" from="79091927#0" to="48135968#1" type="P_passenger" />
    <trip id="P2708" depart="25537" from="48563025#8" to="-79091682#5" type="P_passenger" />
    <trip id="P2757" depart="25540" from="-414493940#3" to="247462348#4" type="P_passenger" />
    <trip id="P2790" depart="25542" from="91760825#7" to="49156619#3" type="P_passenger" />
    <trip id="P2794" depart="25543" from="-571377955#10" to="-572152394#2" type="P_passenger" />
    <trip id="P2827" depart="25546" from="79535947#2" to="247540447#4" type="P_passenger" />
    <trip id="P2829" depart="25547" from="79091662#0" to="571301431" type="P_passenger" />
    <trip id="P2839" depart="25548" from="-572017438#0" to="79091717#1" type="P_passenger" />
    <trip id="P2850" depart="25550" from="79537496#3" to="247549499#3" type="P_passenger" />
    <trip id="P2855" depart="25551" from="48483044#1" to="821929835#1" type="P_passenger" />
    <trip id="P2862" depart="25552" from="79536767#1" to="216293267#4" type="P_passenger" />
    <trip id="P2882" depart="25554" from="88520161#0" to="78046820#6" type="P_passenger" />
    <trip id="P2888" depart="25555" from="91859878#4" to="-79535857" type="P_passenger" />
    <trip id="P2889" depart="25556" from="-571296618#0" to="247536025#2" type="P_passenger" />
    <trip id="P2896" depart="25557" from="247478959#1" to="47908288#1" type="P_passenger" />
    <trip id="P2920" depart="25558" from="-571430875" to="79536206#6" type="P_passenger" />
    <trip id="P2939" depart="25560" from="-821229023#2" to="-1005547410" type="P_passenger" />
    <trip id="P2960" depart="25562" from="-824288448" to="-627284437#2" type="P_passenger" />
    <trip id="P2982" depart="25563" from="48259122" to="247462389#0" type="P_passenger" />
    <trip id="P2986" depart="25564" from="633036931" to="821939993#0" type="P_passenger" />
    <trip id="P2988" depart="25565" from="78046858#0" to="-79536055" type="P_passenger" />
    <trip id="P2998" depart="25566" from="821504317#0" to="-572106607#3" type="P_passenger" />
    <trip id="P3001" depart="25567" from="-822235825" to="-79537384#4" type="P_passenger" />
    <trip id="P3032" depart="25571" from="79535704" to="79092028#1" type="P_passenger" />
    <trip id="P3034" depart="25572" from="79536145#0" to="419628722#3" type="P_passenger" />
    <trip id="P3038" depart="25573" from="79535886#1" to="824631901#5" type="P_passenger" />
    <trip id="P3051" depart="25576" from="-79091757" to="375276833#3" type="P_passenger" />
    <trip id="P3055" depart="25577" from="-821973605#2" to="-88750499#9" type="P_passenger" />
    <trip id="P3056" depart="25578" from="-79091762#1" to="-79092037#0" type="P_passenger" />
    <trip id="P3061" depart="25580" from="-176539406#20" to="-821941555#3" type="P_passenger" />
    <trip id="P3082" depart="25584" from="580612248#1" to="1003385066" type="P_passenger" />
    <trip id="P3084" depart="25585" from="-91399037#0" to="247540446#5" type="P_passenger" />
    <trip id="P3098" depart="25587" from="79537528#7" to="48287809#4" type="P_passenger" />
    <trip id="P3108" depart="25590" from="76503811#0" to="74920160#4" type="P_passenger" />
    <trip id="P3164" depart="25592" from="-247536008#1" to="-79091765#0" type="P_passenger" />
    <trip id="P3175" depart="25593" from="-78046821#4" to="79537534#2" type="P_passenger" />
    <trip id="P3196" depart="25594" from="-824644534#1" to="88520196#10" type="P_passenger" />
    <trip id="P3197" depart="25595" from="-80175356#1" to="107286374#1" type="P_passenger" />
    <trip id="P3230" depart="25599" from="572027724#4" to="-821580501#1" type="P_passenger" />
    <trip id="P3275" depart="25604" from="571388679#3" to="-79711790#2" type="P_passenger" />
    <trip id="P3284" depart="25606" from="819578580#4" to="79537179" type="P_passenger" />
    <trip id="P3293" depart="25608" from="-247462398#1" to="-627284442" type="P_passenger" />
    <trip id="P3319" depart="25612" from="-821508736#1" to="79091813#1" type="P_passenger" />
    <trip id="P3325" depart="25614" from="-824659715#1" to="1002492303#1" type="P_passenger" />
    <trip id="P3331" depart="25615" from="-571377484#1" to="247557145#0" type="P_passenger" />
    <trip id="P3345" depart="25617" from="375276881#2" to="-79537424#2" type="P_passenger" />
    <trip id="P3350" depart="25618" from="-79537193#5" to="-247462332" type="P_passenger" />
    <trip id="P3354" depart="25619" from="48375938#2" to="-79536309#4" type="P_passenger" />
    <trip id="P3374" depart="25620" from="78046881#1" to="-96319769#1" type="P_passenger" />
    <trip id="P3398" depart="25625" from="391058625" to="107286351#2" type="P_passenger" />
    <trip id="P3437" depart="25628" from="-180649333" to="-530397331" type="P_passenger" />
    <trip id="P3472" depart="25630" from="-79091673#7" to="48268641#2" type="P_passenger" />
    <trip id="P3490" depart="25633" from="-571386777" to="-79711720#6" type="P_passenger" />
    <trip id="P3505" depart="25635" from="247462321#0" to="167671619#2" type="P_passenger" />
    <trip id="P3510" depart="25636" from="107286346#2" to="824651850" type="P_passenger" />
    <trip id="P3524" depart="25637" from="79536104" to="-572155769#0" type="P_passenger" />
    <trip id="P3546" depart="25638" from="48259123#0" to="-79091654#1" type="P_passenger" />
    <trip id="P3595" depart="25640" from="79091812#1" to="48514959#4" type="P_passenger" />
    <trip id="P3655" depart="25645" from="-247557161#1" to="-79536172#1" type="P_passenger" />
    <trip id="P3667" depart="25649" from="-439248078" to="-247535951#3" type="P_passenger" />
    <trip id="P3684" depart="25653" from="-247540439#0" to="79536209#1" type="P_passenger" />
    <trip id="P3687" depart="25654" from="1005180357#0" to="79091746#2" type="P_passenger" />
    <trip id="P3705" depart="25655" from="90972272#11" to="572027724#4" type="P_passenger" />
    <trip id="P3707" depart="25656" from="108333937#17" to="79536206#2" type="P_passenger" />
    <trip id="P3728" depart="25658" from="-79537457#3" to="-79535911#2" type="P_passenger" />
    <trip id="P3759" depart="25663" from="-571835444" to="-47909390#0" type="P_passenger" />
    <trip id="P3764" depart="25664" from="79536362#36" to="-821657154#4" type="P_passenger" />
    <trip id="P3771" depart="25666" from="-247549495#2" to="-155343009#1" type="P_passenger" />
    <trip id="P3816" depart="25670" from="-247478989#1" to="435398046#0" type="P_passenger" />
    <trip id="P3818" depart="25671" from="-92022563#3" to="-76503814" type="P_passenger" />
    <trip id="P3827" depart="25673" from="-79536647" to="-102150859#1" type="P_passenger" />
    <trip id="P3832" depart="25675" from="48398801#9" to="79091859#3" type="P_passenger" />
    <trip id="P3845" depart="25677" from="78335796#1" to="79091731#1" type="P_passenger" />
    <trip id="P3851" depart="25678" from="-79535934" to="375278864#3" type="P_passenger" />
    <trip id="P3861" depart="25679" from="-572101155#0" to="79536872#2" type="P_passenger" />
    <trip id="P3866" depart="25680" from="79092013#4" to="78046855#12" type="P_passenger" />
    <trip id="P3894" depart="25682" from="-79091812#2" to="-79711771#2" type="P_passenger" />
    <trip id="P3899" depart="25683" from="530397310" to="91859878#4" type="P_passenger" />
    <trip id="P3902" depart="25684" from="-821657665#0" to="626755086#0" type="P_passenger" />
    <trip id="P3915" depart="25685" from="-111796791#1" to="824636724" type="P_passenger" />
    <trip id="P3926" depart="25686" from="79091648#1" to="571425053" type="P_passenger" />
    <trip id="P3952" depart="25691" from="-247549499#15" to="-572108380#1" type="P_passenger" />
    <trip id="P3970" depart="25693" from="572102381#1" to="78046845#3" type="P_passenger" />
    <trip id="P4049" depart="25698" from="-48243128#2" to="108333937#11" type="P_passenger" />
    <trip id="P4064" depart="25700" from="-79091859#3" to="-571377235#0" type="P_passenger" />
    <trip id="P4079" depart="25701" from="247536044#1" to="247462319#4" type="P_passenger" />
    <trip id="P4102" depart="25704" from="-571426124" to="79091987#0" type="P_passenger" />
    <trip id="P4103" depart="25705" from="48509139#3" to="79536600#2" type="P_passenger" />
    <trip id="P4121" depart="25708" from="78046858#2" to="88750486#3" type="P_passenger" />
    <trip id="P4127" depart="25709" from="-824623910#3" to="-571386796" type="P_passenger" />
    <trip id="P4136" depart="25710" from="-247535998#2" to="822321071#0" type="P_passenger" />
    <trip id="P4169" depart="25714" from="-88750499#9" to="-436441832" type="P_passenger" />
    <trip id="P4196" depart="25717" from="91393348#7" to="48135967#10" type="P_passenger" />
    <trip id="P4198" depart="25718" from="247462326#3" to="-571811910#0" type="P_passenger" />
    <trip id="P4231" depart="25722" from="375276833#1" to="-79092005#2" type="P_passenger" />
    <trip id="P4273" depart="25725" from="-107286381#3" to="-751783837#1" type="P_passenger" />
    <trip id="P4280" depart="25727" from="-573389361#0" to="419621878" type="P_passenger" />
    <trip id="P4287" depart="25728" from="96319744" to="571291961#1" type="P_passenger" />
    <trip id="P4295" depart="25729" from="-821891977" to="247536035#3" type="P_passenger" />
    <trip id="P4300" depart="25730" from="-247462333" to="-180646049#0" type="P_passenger" />
    <trip id="P4303" depart="25731" from="822309593#1" to="-49156619#1" type="P_passenger" />
    <trip id="P4313" depart="25732" from="-571426122#4" to="79091912#1" type="P_passenger" />
    <trip id="P4318" depart="25734" from="47997594#0" to="-824300377#6" type="P_passenger" />
    <trip id="P4357" depart="25737" from="-247478987#8" to="79536790#1" type="P_passenger" />
    <trip id="P4377" depart="25739" from="-88527324#0" to="571423421#2" type="P_passenger" />
    <trip id="P4382" depart="25740" from="79536425#0" to="571386790#5" type="P_passenger" />
    <trip id="P4385" depart="25741" from="581081059" to="-232848628#6" type="P_passenger" />
    <trip id="P4386" depart="25742" from="-79535805" to="-439248075#1" type="P_passenger" />
    <trip id="P4391" depart="25743" from="78335869" to="-79091756#0" type="P_passenger" />
    <trip id="P4392" depart="25744" from="247462351#7" to="48514959#1" type="P_passenger" />
    <trip id="P4409" depart="25747" from="824636491#1" to="824631901#2" type="P_passenger" />
    <trip id="P4452" depart="25750" from="73573116" to="-247557155#1" type="P_passenger" />
    <trip id="P4461" depart="25752" from="79535874#3" to="78335847#17" type="P_passenger" />
    <trip id="P4462" depart="25753" from="-79536912" to="-75919623#1" type="P_passenger" />
    <trip id="P4466" depart="25754" from="78046787" to="821560546" type="P_passenger" />
    <trip id="P4494" depart="25757" from="79091924#6" to="79091760" type="P_passenger" />
    <trip id="P4497" depart="25758" from="79091826#1" to="-49156619#5" type="P_passenger" />
    <trip id="P4526" depart="25760" from="821236272" to="688682283#6" type="P_passenger" />
    <trip id="P4546" depart="25761" from="824617720#0" to="824636490#0" type="P_passenger" />
    <trip id="P4555" depart="25763" from="-824657985" to="824674868#0" type="P_passenger" />
    <trip id="P4582" depart="25764" from="361051697#0" to="-1005501457#0" type="P_passenger" />
    <trip id="P4603" depart="25767" from="-79536792#5" to="572102640#2" type="P_passenger" />
    <trip id="P4604" depart="25768" from="824639467#0" to="79711747#1" type="P_passenger" />
    <trip id="P4607" depart="25770" from="571384859#2" to="1019984254#1" type="P_passenger" />
    <trip id="P4645" depart="25772" from="-361051696#1" to="-894446024#2" type="P_passenger" />
    <trip id="P4655" depart="25773" from="48483044#0" to="-503110289#2" type="P_passenger" />
    <trip id="P4668" depart="25774" from="571281131#1" to="-108333963#4" type="P_passenger" />
    <trip id="P4672" depart="25775" from="79091828#2" to="824644535#2" type="P_passenger" />
    <trip id="P4702" depart="25777" from="-822309593#1" to="-247555570#1" type="P_passenger" />
    <trip id="P4719" depart="25781" from="-821527097" to="-908399098#0" type="P_passenger" />
    <trip id="P4739" depart="25783" from="-78046765#0" to="-79091646#0" type="P_passenger" />
    <trip id="P4753" depart="25785" from="391058617#3" to="49157412#11-AddedOffRampEdge" type="P_passenger" />
    <trip id="P4786" depart="25786" from="1005494611#1" to="-79537480#2" type="P_passenger" />
    <trip id="P4798" depart="25787" from="-79091682#1" to="79536142#0" type="P_passenger" />
    <trip id="P4803" depart="25788" from="-79537460#2" to="822235831" type="P_passenger" />
    <trip id="P4817" depart="25790" from="-572111313#2" to="-48509152#1" type="P_passenger" />
    <trip id="P4823" depart="25791" from="78335898#0" to="821924168" type="P_passenger" />
    <trip id="P4840" depart="25793" from="-98356943#12" to="96319778#4" type="P_passenger" />
    <trip id="P4846" depart="25795" from="91399052#1" to="30517180#2" type="P_passenger" />
    <trip id="P4849" depart="25796" from="571429225" to="76503798#2" type="P_passenger" />
    <trip id="P4854" depart="25797" from="-79537480#1" to="108333855#2" type="P_passenger" />
    <trip id="P4856" depart="25798" from="-79535889#1" to="-824632639" type="P_passenger" />
    <trip id="P4859" depart="25799" from="-626755086#1" to="-48135818#7" type="P_passenger" />
    <trip id="P4860" depart="25800" from="-79536453#1" to="96379259" type="P_passenger" />
    <trip id="P4872" depart="25802" from="-79537358#3" to="-48135818#10" type="P_passenger" />
    <trip id="P4884" depart="25803" from="-79092105#0" to="419628716#9" type="P_passenger" />
    <trip id="P4906" depart="25806" from="-48514961#20" to="-79091783#0" type="P_passenger" />
    <trip id="P4913" depart="25807" from="79537528#2" to="572035782" type="P_passenger" />
    <trip id="P4924" depart="25809" from="108333972#0" to="48514961#22" type="P_passenger" />
    <trip id="P4934" depart="25810" from="-247535987#2" to="74842973#0" type="P_passenger" />
    <trip id="P4947" depart="25811" from="-247462315#0" to="79537528#5" type="P_passenger" />