<?xml version="1.0" encoding="UTF-8"?>

<!-- generated on 2024-07-09 11:55:31.875994 by randomTrips.py v1_19_0+0000-baa66a0f364
<configuration>
    <net-file value="Pasto_VAN.net.xml"/>
    <output-trip-file value="vehicle.trips.xml"/>
    <prefix value="P"/>
    <vehicle-class value="passenger"/>
    <end value="12000.0"/>
</configuration>
-->

<routes xmlns:xsi="http://www.w3.org/2001/XMLSchema-instance" xsi:noNamespaceSchemaLocation="http://sumo.dlr.de/xsd/routes_file.xsd">
    <vType id="P_passenger" vClass="passenger"/>
    <trip id="P0" depart="0.00" from="572150010#1" to="-107286424" type="P_passenger"/>
    <trip id="P1" depart="1.00" from="-79536635#0" to="-79091987#6" type="P_passenger"/>
    <trip id="P2" depart="2.00" from="79091784#1" to="78046848#0" type="P_passenger"/>
    <trip id="P3" depart="3.00" from="821908860#5" to="-48205157#1" type="P_passenger"/>
    <trip id="P4" depart="4.00" from="1005468880#0" to="-108333937#11" type="P_passenger"/>
    <trip id="P5" depart="5.00" from="-79091812#3" to="375276881#5" type="P_passenger"/>
    <trip id="P6" depart="6.00" from="-108333857#1" to="-79091723#1" type="P_passenger"/>
    <trip id="P7" depart="7.00" from="627284435#1" to="48268653#0" type="P_passenger"/>
    <trip id="P8" depart="8.00" from="-79091826#2" to="571281131#8" type="P_passenger"/>
    <trip id="P9" depart="9.00" from="79536466#0" to="-1007548955" type="P_passenger"/>
    <trip id="P10" depart="10.00" from="79536380" to="78335873#0" type="P_passenger"/>
    <trip id="P11" depart="11.00" from="-821908860#6" to="-751783837#0" type="P_passenger"/>
    <trip id="P12" depart="12.00" from="88750520#1" to="-821973607#2" type="P_passenger"/>
    <trip id="P13" depart="13.00" from="-48375933#0" to="-48562548#3" type="P_passenger"/>
    <trip id="P14" depart="14.00" from="79537304" to="571386801" type="P_passenger"/>
    <trip id="P15" depart="15.00" from="79536412#0" to="79091803#4" type="P_passenger"/>
    <trip id="P16" depart="16.00" from="430660463#3" to="915729880#0" type="P_passenger"/>
    <trip id="P17" depart="17.00" from="-824650893" to="48376975#17" type="P_passenger"/>
    <trip id="P18" depart="18.00" from="79536901#0" to="572101155#0" type="P_passenger"/>
    <trip id="P19" depart="19.00" from="79711720#4" to="49157406#2" type="P_passenger"/>
    <trip id="P20" depart="20.00" from="78335847#17" to="-247462319#3" type="P_passenger"/>
    <trip id="P21" depart="21.00" from="-79091914#2" to="-79537358#6" type="P_passenger"/>
    <trip id="P22" depart="22.00" from="-391058621#1" to="-79535684#0" type="P_passenger"/>
    <trip id="P23" depart="23.00" from="-48981800#2" to="-79537023#1" type="P_passenger"/>
    <trip id="P24" depart="24.00" from="572111313#0" to="-824676189#1" type="P_passenger"/>
    <trip id="P25" depart="25.00" from="-824636098#1" to="-79091836#6" type="P_passenger"/>
    <trip id="P26" depart="26.00" from="-79536342#0" to="824676188#1" type="P_passenger"/>
    <trip id="P27" depart="27.00" from="626987871" to="571427726" type="P_passenger"/>
    <trip id="P28" depart="28.00" from="-78046786#1" to="79091797#1" type="P_passenger"/>
    <trip id="P29" depart="29.00" from="-73569157#0" to="-88750499#5" type="P_passenger"/>
    <trip id="P30" depart="30.00" from="95412518#0" to="627284435#0" type="P_passenger"/>
    <trip id="P31" depart="31.00" from="48235658#0" to="78335718#7" type="P_passenger"/>
    <trip id="P32" depart="32.00" from="79537183#5" to="79535900#7" type="P_passenger"/>
    <trip id="P33" depart="33.00" from="-79091925#4" to="-108333965#14" type="P_passenger"/>
    <trip id="P34" depart="34.00" from="-798416902#0" to="-79536741#4" type="P_passenger"/>
    <trip id="P35" depart="35.00" from="-79091729#0" to="87973787#20" type="P_passenger"/>
    <trip id="P36" depart="36.00" from="821229041#1" to="-821635963#2" type="P_passenger"/>
    <trip id="P37" depart="37.00" from="633036941#11" to="-96319778#7" type="P_passenger"/>
    <trip id="P38" depart="38.00" from="824301592#0" to="247462345#1" type="P_passenger"/>
    <trip id="P39" depart="39.00" from="-79536283#0" to="-79536116#0" type="P_passenger"/>
    <trip id="P40" depart="40.00" from="48268341#10" to="-79536617#0" type="P_passenger"/>
    <trip id="P41" depart="41.00" from="48562796#3" to="821951591" type="P_passenger"/>
    <trip id="P42" depart="42.00" from="-88750499#11" to="-79091949#0" type="P_passenger"/>
    <trip id="P43" depart="43.00" from="98356941#4" to="391060082#1" type="P_passenger"/>
    <trip id="P44" depart="44.00" from="-48259161#2" to="-247462327#3" type="P_passenger"/>
    <trip id="P45" depart="45.00" from="-540970695#0" to="572146506#0" type="P_passenger"/>
    <trip id="P46" depart="46.00" from="79536116#4" to="107286357#0" type="P_passenger"/>
    <trip id="P47" depart="47.00" from="-247536000#0" to="-894445546#1" type="P_passenger"/>
    <trip id="P48" depart="48.00" from="96379281" to="47997597#5" type="P_passenger"/>
    <trip id="P49" depart="49.00" from="91405604#1" to="797703535#0" type="P_passenger"/>
    <trip id="P50" depart="50.00" from="-107286289#10" to="79091723#1" type="P_passenger"/>
    <trip id="P51" depart="51.00" from="78046810#11" to="48205258" type="P_passenger"/>
    <trip id="P52" depart="52.00" from="-79536333" to="627284437#1" type="P_passenger"/>
    <trip id="P53" depart="53.00" from="-571281870#0" to="108333937#1" type="P_passenger"/>
    <trip id="P54" depart="54.00" from="108333936#1" to="88750476#5" type="P_passenger"/>
    <trip id="P55" depart="55.00" from="821229028#0" to="-79536641#1" type="P_passenger"/>
    <trip id="P56" depart="56.00" from="247536052#2" to="-78335806#10" type="P_passenger"/>
    <trip id="P57" depart="57.00" from="824288447#1" to="821243396" type="P_passenger"/>
    <trip id="P58" depart="58.00" from="-79537269#4" to="627041176#1-AddedOnRampEdge" type="P_passenger"/>
    <trip id="P59" depart="59.00" from="571291961#1" to="-695866322" type="P_passenger"/>
    <trip id="P60" depart="60.00" from="79092002#3" to="48243130#0" type="P_passenger"/>
    <trip id="P61" depart="61.00" from="79535816#7" to="48135812#0" type="P_passenger"/>
    <trip id="P62" depart="62.00" from="-1002494232#1" to="-821913473" type="P_passenger"/>
    <trip id="P63" depart="63.00" from="-107286359#1" to="824648947#12" type="P_passenger"/>
    <trip id="P64" depart="64.00" from="821508737" to="79537104#5" type="P_passenger"/>
    <trip id="P65" depart="65.00" from="-79537518#0" to="-247478989#7" type="P_passenger"/>
    <trip id="P66" depart="66.00" from="821504311" to="88520171#11" type="P_passenger"/>
    <trip id="P67" depart="67.00" from="-440420827" to="247549480#6" type="P_passenger"/>
    <trip id="P68" depart="68.00" from="-247549481#1" to="79092079#2" type="P_passenger"/>
    <trip id="P69" depart="69.00" from="79092036#0" to="-571838548" type="P_passenger"/>
    <trip id="P70" depart="70.00" from="247462312#3" to="48375936" type="P_passenger"/>
    <trip id="P71" depart="71.00" from="-79536287" to="821504315" type="P_passenger"/>
    <trip id="P72" depart="72.00" from="1005501458" to="-79091859#2" type="P_passenger"/>
    <trip id="P73" depart="73.00" from="435540896" to="79091805#1" type="P_passenger"/>
    <trip id="P74" depart="74.00" from="-788587785#1" to="-821515471" type="P_passenger"/>
    <trip id="P75" depart="75.00" from="96321145#1" to="670025444#1" type="P_passenger"/>
    <trip id="P76" depart="76.00" from="107286325#1" to="431258050#1" type="P_passenger"/>
    <trip id="P77" depart="77.00" from="-571377955#4" to="-79092002#1" type="P_passenger"/>
    <trip id="P78" depart="78.00" from="-821906528" to="551105961#2" type="P_passenger"/>
    <trip id="P79" depart="79.00" from="-79091936#2" to="-79091958#3" type="P_passenger"/>
    <trip id="P80" depart="80.00" from="-247549494#3" to="572993589" type="P_passenger"/>
    <trip id="P81" depart="81.00" from="-79091925#2" to="822232226#0" type="P_passenger"/>
    <trip id="P82" depart="82.00" from="79537528#7" to="-247549494#6" type="P_passenger"/>
    <trip id="P83" depart="83.00" from="-79092017#3" to="78046748#1" type="P_passenger"/>
    <trip id="P84" depart="84.00" from="-79091762#0" to="-572101155#0" type="P_passenger"/>
    <trip id="P85" depart="85.00" from="824674867" to="48870204#3" type="P_passenger"/>
    <trip id="P86" depart="86.00" from="216293267#5" to="79536115" type="P_passenger"/>
    <trip id="P87" depart="87.00" from="79536418#2" to="-788905219" type="P_passenger"/>
    <trip id="P88" depart="88.00" from="-48514961#21" to="108333866#1" type="P_passenger"/>
    <trip id="P89" depart="89.00" from="1005535558" to="247478974#2" type="P_passenger"/>
    <trip id="P90" depart="90.00" from="79091723#1" to="78046810#6" type="P_passenger"/>
    <trip id="P91" depart="91.00" from="92022543#0" to="-48871851#2" type="P_passenger"/>
    <trip id="P92" depart="92.00" from="-894446024#1" to="-822309862#4" type="P_passenger"/>
    <trip id="P93" depart="93.00" from="79711720#4" to="-79536146#16" type="P_passenger"/>
    <trip id="P94" depart="94.00" from="-78335809#11" to="176539375#3" type="P_passenger"/>
    <trip id="P95" depart="95.00" from="1005275193" to="-79537033" type="P_passenger"/>
    <trip id="P96" depart="96.00" from="-79535837#0" to="824636721" type="P_passenger"/>
    <trip id="P97" depart="97.00" from="107286374#5" to="798416902#0" type="P_passenger"/>
    <trip id="P98" depart="98.00" from="48135967#13" to="-247462357#0" type="P_passenger"/>
    <trip id="P99" depart="99.00" from="99555833#1" to="79537213" type="P_passenger"/>
    <trip id="P100" depart="100.00" from="91399035#2" to="824644534#1" type="P_passenger"/>
    <trip id="P101" depart="101.00" from="79537344#2" to="-78046842#1" type="P_passenger"/>
    <trip id="P102" depart="102.00" from="247478955#3" to="-79091877#4" type="P_passenger"/>
    <trip id="P103" depart="103.00" from="-89280520#4" to="-247478997#1" type="P_passenger"/>
    <trip id="P104" depart="104.00" from="-824651478#1" to="92022561#4" type="P_passenger"/>
    <trip id="P105" depart="105.00" from="-79536302#0" to="79536106#2" type="P_passenger"/>
    <trip id="P106" depart="106.00" from="108333945#1" to="107286369" type="P_passenger"/>
    <trip id="P107" depart="107.00" from="88750521#0" to="96321145#5" type="P_passenger"/>
    <trip id="P108" depart="108.00" from="48205263" to="79091706#1" type="P_passenger"/>
    <trip id="P109" depart="109.00" from="-59861597#1" to="-79537532" type="P_passenger"/>
    <trip id="P110" depart="110.00" from="91393352#7" to="49157544#3" type="P_passenger"/>
    <trip id="P111" depart="111.00" from="438345818" to="79091952" type="P_passenger"/>
    <trip id="P112" depart="112.00" from="-247478987#6" to="540970676#4" type="P_passenger"/>
    <trip id="P113" depart="113.00" from="247540444#2" to="79537544#1" type="P_passenger"/>
    <trip id="P114" depart="114.00" from="-627284435#7" to="893436349#0" type="P_passenger"/>
    <trip id="P115" depart="115.00" from="-405396381#1" to="-78335873#0" type="P_passenger"/>
    <trip id="P116" depart="116.00" from="49157405#0" to="78046824#0" type="P_passenger"/>
    <trip id="P117" depart="117.00" from="-79091988#1" to="-571386792#1" type="P_passenger"/>
    <trip id="P118" depart="118.00" from="821903511" to="-79536112#1" type="P_passenger"/>
    <trip id="P119" depart="119.00" from="49157398#3" to="572102378" type="P_passenger"/>
    <trip id="P120" depart="120.00" from="1002492303#7" to="530397330" type="P_passenger"/>
    <trip id="P121" depart="121.00" from="372926771#3" to="824670784" type="P_passenger"/>
    <trip id="P122" depart="122.00" from="-79091665#2" to="79091695#0" type="P_passenger"/>
    <trip id="P123" depart="123.00" from="-79092028#1" to="-96379274#1" type="P_passenger"/>
    <trip id="P124" depart="124.00" from="76256886#4" to="-79711741#0" type="P_passenger"/>
    <trip id="P125" depart="125.00" from="-798923790" to="79091982#0" type="P_passenger"/>
    <trip id="P126" depart="126.00" from="-247549499#9" to="247462340" type="P_passenger"/>
    <trip id="P127" depart="127.00" from="98356943#2" to="96379274#1" type="P_passenger"/>
    <trip id="P128" depart="128.00" from="-247555572#0" to="-79091869#3" type="P_passenger"/>
    <trip id="P129" depart="129.00" from="-79536302#0" to="824662366#1" type="P_passenger"/>
    <trip id="P130" depart="130.00" from="821528770#1" to="821642935" type="P_passenger"/>
    <trip id="P131" depart="131.00" from="-824633819" to="-77767453#4" type="P_passenger"/>
    <trip id="P132" depart="132.00" from="79537023#2" to="78518739#1" type="P_passenger"/>
    <trip id="P133" depart="133.00" from="571369277#0" to="932018780#5" type="P_passenger"/>
    <trip id="P134" depart="134.00" from="633036932#1" to="-102150869#2" type="P_passenger"/>
    <trip id="P135" depart="135.00" from="79536679#0" to="-79711727#7" type="P_passenger"/>
    <trip id="P136" depart="136.00" from="74344204#3" to="824894667" type="P_passenger"/>
    <trip id="P137" depart="137.00" from="-571833966" to="-571374975#0" type="P_passenger"/>
    <trip id="P138" depart="138.00" from="-530397323#2" to="48377227#0" type="P_passenger"/>
    <trip id="P139" depart="139.00" from="-79536509#1" to="571388679#1" type="P_passenger"/>
    <trip id="P140" depart="140.00" from="788905222#0" to="-79091765#0" type="P_passenger"/>
    <trip id="P141" depart="141.00" from="572108378#1" to="-79536651#1" type="P_passenger"/>
    <trip id="P142" depart="142.00" from="247478987#9" to="822231291#6" type="P_passenger"/>
    <trip id="P143" depart="143.00" from="79537269#0" to="-48377230#4" type="P_passenger"/>
    <trip id="P144" depart="144.00" from="1005534796" to="-79536984" type="P_passenger"/>
    <trip id="P145" depart="145.00" from="-1005479962" to="79535828#0" type="P_passenger"/>
    <trip id="P146" depart="146.00" from="572143993" to="-79536612" type="P_passenger"/>
    <trip id="P147" depart="147.00" from="79091823#5" to="48376975#11" type="P_passenger"/>
    <trip id="P148" depart="148.00" from="1007221485" to="-107286285" type="P_passenger"/>
    <trip id="P149" depart="149.00" from="-259815365#0" to="821882278#3" type="P_passenger"/>
    <trip id="P150" depart="150.00" from="821970511#3" to="48268814#0" type="P_passenger"/>
    <trip id="P151" depart="151.00" from="79537029#5" to="530397321#1" type="P_passenger"/>
    <trip id="P152" depart="152.00" from="-572145001" to="-571754298#1" type="P_passenger"/>
    <trip id="P153" depart="153.00" from="-79537528#3" to="821961692#7" type="P_passenger"/>
    <trip id="P154" depart="154.00" from="79536206#1" to="797701645#3" type="P_passenger"/>
    <trip id="P155" depart="155.00" from="821950258#0" to="-79091849#6" type="P_passenger"/>
    <trip id="P156" depart="156.00" from="-79535836#1" to="-503110275#8" type="P_passenger"/>
    <trip id="P157" depart="157.00" from="79535856#4" to="821885337#0" type="P_passenger"/>
    <trip id="P158" depart="158.00" from="-915729876" to="572102640#6" type="P_passenger"/>
    <trip id="P159" depart="159.00" from="-582809727" to="824650234#0" type="P_passenger"/>
    <trip id="P160" depart="160.00" from="79711748#0" to="91760825#7" type="P_passenger"/>
    <trip id="P161" depart="161.00" from="79536509#1" to="821658037" type="P_passenger"/>
    <trip id="P162" depart="162.00" from="-107286419#10" to="79091856#5" type="P_passenger"/>
    <trip id="P163" depart="163.00" from="-821658037" to="824651844" type="P_passenger"/>
    <trip id="P164" depart="164.00" from="79536350#1" to="819566328" type="P_passenger"/>
    <trip id="P165" depart="165.00" from="79536509#1" to="-79536714#1" type="P_passenger"/>
    <trip id="P166" depart="166.00" from="79536003#0" to="-540970702#1" type="P_passenger"/>
    <trip id="P167" depart="167.00" from="819578582#3" to="79711780#1" type="P_passenger"/>
    <trip id="P168" depart="168.00" from="-79091856#11" to="79536797#1" type="P_passenger"/>
    <trip id="P169" depart="169.00" from="110678708#1" to="-819566325" type="P_passenger"/>
    <trip id="P170" depart="170.00" from="79536168#5" to="-79092037#1" type="P_passenger"/>
    <trip id="P171" depart="171.00" from="-107286406#4" to="-79091665#0" type="P_passenger"/>
    <trip id="P172" depart="172.00" from="-821580501#1" to="819578580#4" type="P_passenger"/>
    <trip id="P173" depart="173.00" from="91387725#4" to="-79537054#2" type="P_passenger"/>
    <trip id="P174" depart="174.00" from="573331704#0" to="1002495705" type="P_passenger"/>
    <trip id="P175" depart="175.00" from="91859878#3" to="48205152#3" type="P_passenger"/>
    <trip id="P176" depart="176.00" from="84247684#0" to="-571374869#0" type="P_passenger"/>
    <trip id="P177" depart="177.00" from="91399076#1" to="-78335806#1" type="P_passenger"/>
    <trip id="P178" depart="178.00" from="902360486#0" to="-79536691" type="P_passenger"/>
    <trip id="P179" depart="179.00" from="-540970677#0" to="108333920#9" type="P_passenger"/>
    <trip id="P180" depart="180.00" from="79091721#1" to="-821580501#0" type="P_passenger"/>
    <trip id="P181" depart="181.00" from="551105961#2" to="419628715#1" type="P_passenger"/>
    <trip id="P182" depart="182.00" from="-824672883" to="49157402#0" type="P_passenger"/>
    <trip id="P183" depart="183.00" from="-79535983#2" to="788905222#1" type="P_passenger"/>
    <trip id="P184" depart="184.00" from="-1003869641" to="824641789#1" type="P_passenger"/>
    <trip id="P185" depart="185.00" from="435398047#8" to="79091716#1" type="P_passenger"/>
    <trip id="P186" depart="186.00" from="79091832#0" to="78046786#8" type="P_passenger"/>
    <trip id="P187" depart="187.00" from="-824600078#0" to="-247549487#0" type="P_passenger"/>
    <trip id="P188" depart="188.00" from="74740744#0" to="-821950258#0" type="P_passenger"/>
    <trip id="P189" depart="189.00" from="-79711780#0" to="79537471" type="P_passenger"/>
    <trip id="P190" depart="190.00" from="79091648#5" to="-79711746#2" type="P_passenger"/>
    <trip id="P191" depart="191.00" from="-79711716#0" to="1006141643" type="P_passenger"/>
    <trip id="P192" depart="192.00" from="-894445547#1" to="-79537518#1" type="P_passenger"/>
    <trip id="P193" depart="193.00" from="-571388684#5" to="107286337#0" type="P_passenger"/>
    <trip id="P194" depart="194.00" from="869736326" to="78046855#10" type="P_passenger"/>
    <trip id="P195" depart="195.00" from="821967190" to="572024632#2" type="P_passenger"/>
    <trip id="P196" depart="196.00" from="-79537358#1" to="48357657#20" type="P_passenger"/>
    <trip id="P197" depart="197.00" from="-1001635755" to="-79537290#1" type="P_passenger"/>
    <trip id="P198" depart="198.00" from="1019984254#0" to="49188674" type="P_passenger"/>
    <trip id="P199" depart="199.00" from="633036936#2" to="247478952#1" type="P_passenger"/>
    <trip id="P200" depart="200.00" from="107286371#2" to="-79091877#3" type="P_passenger"/>
    <trip id="P201" depart="201.00" from="232848628#0" to="821965450#1" type="P_passenger"/>
    <trip id="P202" depart="202.00" from="79536202" to="-78046859#2" type="P_passenger"/>
    <trip id="P203" depart="203.00" from="-436441829#3" to="429966007#1" type="P_passenger"/>
    <trip id="P204" depart="204.00" from="572106607#0" to="-821970511#3" type="P_passenger"/>
    <trip id="P205" depart="205.00" from="79536712#2" to="79091977#1" type="P_passenger"/>
    <trip id="P206" depart="206.00" from="76391866#3-AddedOnRampEdge" to="-79092002#0" type="P_passenger"/>
    <trip id="P207" depart="207.00" from="-78518743#1" to="-107286419#7" type="P_passenger"/>
    <trip id="P208" depart="208.00" from="-79535689" to="247535987#1" type="P_passenger"/>
    <trip id="P209" depart="209.00" from="79537354#2" to="-247555570#4" type="P_passenger"/>
    <trip id="P210" depart="210.00" from="-96319746" to="572152394#7" type="P_passenger"/>
    <trip id="P211" depart="211.00" from="-78335847#12" to="78335860#1" type="P_passenger"/>
    <trip id="P212" depart="212.00" from="247535972#3" to="-79536024#4" type="P_passenger"/>
    <trip id="P213" depart="213.00" from="633036941#6" to="-1006125763" type="P_passenger"/>
    <trip id="P214" depart="214.00" from="79091915#1" to="79535803#1" type="P_passenger"/>
    <trip id="P215" depart="215.00" from="-530397321#0" to="107286383#0" type="P_passenger"/>
    <trip id="P216" depart="216.00" from="-78046821#2" to="89280520#3" type="P_passenger"/>
    <trip id="P217" depart="217.00" from="297923440#4" to="-247462351#7" type="P_passenger"/>
    <trip id="P218" depart="218.00" from="-79535831#3" to="79537482#0" type="P_passenger"/>
    <trip id="P219" depart="219.00" from="108333965#5" to="79536455#0" type="P_passenger"/>
    <trip id="P220" depart="220.00" from="74918635#3" to="935787571#1" type="P_passenger"/>
    <trip id="P221" depart="221.00" from="49157407" to="88527339#1" type="P_passenger"/>
    <trip id="P222" depart="222.00" from="821907607#2" to="571836944#0" type="P_passenger"/>
    <trip id="P223" depart="223.00" from="79091646#6" to="375276880#5" type="P_passenger"/>
    <trip id="P224" depart="224.00" from="79536925#6" to="48357657#2" type="P_passenger"/>
    <trip id="P225" depart="225.00" from="821944352#0" to="79091924#0" type="P_passenger"/>
    <trip id="P226" depart="226.00" from="247350783#1" to="-79536463#1" type="P_passenger"/>
    <trip id="P227" depart="227.00" from="-79535774#3" to="626983749#2" type="P_passenger"/>
    <trip id="P228" depart="228.00" from="79092033#2" to="436179699#0" type="P_passenger"/>
    <trip id="P229" depart="229.00" from="572014987#1" to="-79536901#2" type="P_passenger"/>
    <trip id="P230" depart="230.00" from="-297923435#4" to="-79537253#0" type="P_passenger"/>
    <trip id="P231" depart="231.00" from="-79536505#1" to="-821888947#0" type="P_passenger"/>
    <trip id="P232" depart="232.00" from="436179699#3" to="-572113401" type="P_passenger"/>
    <trip id="P233" depart="233.00" from="-79091950#1" to="78335834#2" type="P_passenger"/>
    <trip id="P234" depart="234.00" from="78335865#10" to="-247536008#1" type="P_passenger"/>
    <trip id="P235" depart="235.00" from="-91859769#0" to="48268326#7" type="P_passenger"/>
    <trip id="P236" depart="236.00" from="-96319778#6" to="-79091812#1" type="P_passenger"/>
    <trip id="P237" depart="237.00" from="1002973601" to="822231290" type="P_passenger"/>
    <trip id="P238" depart="238.00" from="48562548#0" to="78335847#4" type="P_passenger"/>
    <trip id="P239" depart="239.00" from="79537494#3" to="79535667#5" type="P_passenger"/>
    <trip id="P240" depart="240.00" from="-824657986" to="-1007399630" type="P_passenger"/>
    <trip id="P241" depart="241.00" from="-821965162#0" to="79091991#1" type="P_passenger"/>
    <trip id="P242" depart="242.00" from="79537449#8" to="88750476#0" type="P_passenger"/>
    <trip id="P243" depart="243.00" from="1002492303#4" to="79091949#0" type="P_passenger"/>
    <trip id="P244" depart="244.00" from="47913079#4" to="571386790#3" type="P_passenger"/>
    <trip id="P245" depart="245.00" from="-79091828#1" to="-79091949#1" type="P_passenger"/>
    <trip id="P246" depart="246.00" from="107286303#2" to="-108333920#2" type="P_passenger"/>
    <trip id="P247" depart="247.00" from="-821891977" to="78046861" type="P_passenger"/>
    <trip id="P248" depart="248.00" from="-91399035#1" to="-78046820#2" type="P_passenger"/>
    <trip id="P249" depart="249.00" from="176266251#1" to="-571831867#0" type="P_passenger"/>
    <trip id="P250" depart="250.00" from="571425552#0" to="-108333880#0" type="P_passenger"/>
    <trip id="P251" depart="251.00" from="-88520209#1" to="48514961#24" type="P_passenger"/>
    <trip id="P252" depart="252.00" from="-108333866#3" to="632002932#1" type="P_passenger"/>
    <trip id="P253" depart="253.00" from="-572013390" to="247462375#0" type="P_passenger"/>
    <trip id="P254" depart="254.00" from="-247462357#0" to="-88750499#13" type="P_passenger"/>
    <trip id="P255" depart="255.00" from="-79091736#3" to="-821939994#0" type="P_passenger"/>
    <trip id="P256" depart="256.00" from="79091991#1" to="-88750499#14" type="P_passenger"/>
    <trip id="P257" depart="257.00" from="79091925#1" to="79537120#1" type="P_passenger"/>
    <trip id="P258" depart="258.00" from="-79535911#2" to="-435540896" type="P_passenger"/>
    <trip id="P259" depart="259.00" from="-107286359#0" to="48243130#1" type="P_passenger"/>
    <trip id="P260" depart="260.00" from="E0" to="-824631912" type="P_passenger"/>
    <trip id="P261" depart="261.00" from="627284435#2" to="79536024#5" type="P_passenger"/>
    <trip id="P262" depart="262.00" from="630039298" to="79091996#2" type="P_passenger"/>
    <trip id="P263" depart="263.00" from="88527333" to="-79091727#4" type="P_passenger"/>
    <trip id="P264" depart="264.00" from="-107286371#6" to="-688682283#4" type="P_passenger"/>
    <trip id="P265" depart="265.00" from="-571387195#5" to="78046784#1" type="P_passenger"/>
    <trip id="P266" depart="266.00" from="48268814#0" to="-79091932#0" type="P_passenger"/>
    <trip id="P267" depart="267.00" from="78335809#0" to="79535699#4" type="P_passenger"/>
    <trip id="P268" depart="268.00" from="-77767450#0" to="571396195#1" type="P_passenger"/>
    <trip id="P269" depart="269.00" from="79091878" to="-571373822#0" type="P_passenger"/>
    <trip id="P270" depart="270.00" from="79536729#0" to="90972279" type="P_passenger"/>
    <trip id="P271" depart="271.00" from="-540970676#2" to="-108333857#3" type="P_passenger"/>
    <trip id="P272" depart="272.00" from="-79711741#1" to="78046855#10" type="P_passenger"/>
    <trip id="P273" depart="273.00" from="89280520#7" to="-98356941#4" type="P_passenger"/>
    <trip id="P274" depart="274.00" from="788587784#2" to="-295263616#1" type="P_passenger"/>
    <trip id="P275" depart="275.00" from="78046881#5" to="572146504#1" type="P_passenger"/>
    <trip id="P276" depart="276.00" from="-49156614#3" to="79535856#1" type="P_passenger"/>
    <trip id="P277" depart="277.00" from="79537358#5" to="571379973#0" type="P_passenger"/>
    <trip id="P278" depart="278.00" from="-571377955#5" to="91908573#0" type="P_passenger"/>
    <trip id="P279" depart="279.00" from="79535889#2" to="-824620505" type="P_passenger"/>
    <trip id="P280" depart="280.00" from="1007399636#1" to="-87973787#8" type="P_passenger"/>
    <trip id="P281" depart="281.00" from="247549482#0" to="-824207779#0" type="P_passenger"/>
    <trip id="P282" depart="282.00" from="79537352" to="79536905#1" type="P_passenger"/>
    <trip id="P283" depart="283.00" from="-503110286#1" to="893436349#0" type="P_passenger"/>
    <trip id="P284" depart="284.00" from="572110772" to="79537088#0" type="P_passenger"/>
    <trip id="P285" depart="285.00" from="78335867" to="108333937#19" type="P_passenger"/>
    <trip id="P286" depart="286.00" from="79091760" to="90972281#3" type="P_passenger"/>
    <trip id="P287" depart="287.00" from="-79536418#6" to="79536653#0" type="P_passenger"/>
    <trip id="P288" depart="288.00" from="435398047#4" to="247540444#9" type="P_passenger"/>
    <trip id="P289" depart="289.00" from="107286303#1" to="79091811#3" type="P_passenger"/>
    <trip id="P290" depart="290.00" from="-79536392#0" to="79537528#0" type="P_passenger"/>
    <trip id="P291" depart="291.00" from="79536930#1" to="-48205152#2" type="P_passenger"/>
    <trip id="P292" depart="292.00" from="821560548#1" to="-79536024#1" type="P_passenger"/>
    <trip id="P293" depart="293.00" from="155343013#0" to="571432850" type="P_passenger"/>
    <trip id="P294" depart="294.00" from="-824651478#1" to="-108333920#0" type="P_passenger"/>
    <trip id="P295" depart="295.00" from="79537384#2" to="-78335822#0" type="P_passenger"/>
    <trip id="P296" depart="296.00" from="-79091741#1" to="79536362#8" type="P_passenger"/>
    <trip id="P297" depart="297.00" from="-821908860#8" to="821653249" type="P_passenger"/>
    <trip id="P298" depart="298.00" from="78335820#2" to="-79536950#0" type="P_passenger"/>
    <trip id="P299" depart="299.00" from="-1029253271" to="88520171#8" type="P_passenger"/>
    <trip id="P300" depart="300.00" from="-440420823" to="79091720" type="P_passenger"/>
    <trip id="P301" depart="301.00" from="247478989#0" to="79092036#2" type="P_passenger"/>
    <trip id="P302" depart="302.00" from="78046881#5" to="633036941#15" type="P_passenger"/>
    <trip id="P303" depart="303.00" from="247479003#3" to="79536309#9" type="P_passenger"/>
    <trip id="P304" depart="304.00" from="-48375935#0" to="-79091970" type="P_passenger"/>
    <trip id="P305" depart="305.00" from="78046884#6" to="-821217310#1" type="P_passenger"/>
    <trip id="P306" depart="306.00" from="48514961#10" to="247535966#2" type="P_passenger"/>
    <trip id="P307" depart="307.00" from="419628716#10" to="107286385" type="P_passenger"/>
    <trip id="P308" depart="308.00" from="79091865#0" to="-821951593#0" type="P_passenger"/>
    <trip id="P309" depart="309.00" from="78335833#2" to="-79536792#2" type="P_passenger"/>
    <trip id="P310" depart="310.00" from="-79535889#1" to="-571387195#1" type="P_passenger"/>
    <trip id="P311" depart="311.00" from="-78335827#3" to="-571386790#0" type="P_passenger"/>
    <trip id="P312" depart="312.00" from="430660463#16" to="79092099#7" type="P_passenger"/>
    <trip id="P313" depart="313.00" from="-78335718#3" to="-79091919#2" type="P_passenger"/>
    <trip id="P314" depart="314.00" from="247462391#1" to="79091746#2" type="P_passenger"/>
    <trip id="P315" depart="315.00" from="91859770#1" to="445512535#1" type="P_passenger"/>
    <trip id="P316" depart="316.00" from="-79536792#2" to="-49156617#6" type="P_passenger"/>
    <trip id="P317" depart="317.00" from="-78335844#3" to="-79092036#2" type="P_passenger"/>
    <trip id="P318" depart="318.00" from="-78046858#0" to="-107286309#6" type="P_passenger"/>
    <trip id="P319" depart="319.00" from="429120318#1" to="-79536889#0" type="P_passenger"/>
    <trip id="P320" depart="320.00" from="91758574" to="48377230#2" type="P_passenger"/>