<?xml version="1.0" encoding="UTF-8"?>

<!-- generated on 2024-07-02 14:22:03.637363 by randomTrips.py v1_19_0+0000-baa66a0f364
<configuration>
    <net-file value="Pasto_VAN.net.xml"/>
    <output-trip-file value="vehicle.trips.xml"/>
    <prefix value="P"/>
    <vehicle-class value="passenger"/>
    <end value="86400.0"/>
</configuration>
-->

<routes xmlns:xsi="http://www.w3.org/2001/XMLSchema-instance" xsi:noNamespaceSchemaLocation="http://sumo.dlr.de/xsd/routes_file.xsd">
    <vType id="P_passenger" vClass="passenger"/>
    <trip id="P25800" depart="25800.00" from="-821658516" to="821887028" type="P_passenger"/>
    <trip id="P25801" depart="25801.00" from="90972280#4-AddedOnRampEdge" to="-79536378#2" type="P_passenger"/>
    <trip id="P25802" depart="25802.00" from="135714171" to="405395787#0" type="P_passenger"/>
    <trip id="P25803" depart="25803.00" from="79536142#2" to="79535785#2" type="P_passenger"/>
    <trip id="P25804" depart="25804.00" from="-92022549#0" to="48357657#6" type="P_passenger"/>
    <trip id="P25805" depart="25805.00" from="79091743#0" to="-102150849#0" type="P_passenger"/>
    <trip id="P25806" depart="25806.00" from="572024630" to="79536362#36" type="P_passenger"/>
    <trip id="P25807" depart="25807.00" from="79091826#2" to="821508739#0" type="P_passenger"/>
    <trip id="P25808" depart="25808.00" from="96319768#0" to="78518784" type="P_passenger"/>
    <trip id="P25809" depart="25809.00" from="76256886#3" to="-78335736#2" type="P_passenger"/>
    <trip id="P25810" depart="25810.00" from="-419628716#11" to="247462400" type="P_passenger"/>
    <trip id="P25811" depart="25811.00" from="572027724#3" to="-79091932#0" type="P_passenger"/>
    <trip id="P25812" depart="25812.00" from="247478999#1" to="79535911#2" type="P_passenger"/>
    <trip id="P25813" depart="25813.00" from="-571377955#0" to="79091869#3" type="P_passenger"/>
    <trip id="P25814" depart="25814.00" from="-571395007#1" to="90972280#0" type="P_passenger"/>
    <trip id="P25815" depart="25815.00" from="-78046806#2" to="-821970511#6" type="P_passenger"/>
    <trip id="P25816" depart="25816.00" from="419628716#13" to="-571371020" type="P_passenger"/>
    <trip id="P25817" depart="25817.00" from="626983747#0" to="79091697#2" type="P_passenger"/>
    <trip id="P25818" depart="25818.00" from="571423421#0" to="-571377955#4" type="P_passenger"/>
    <trip id="P25819" depart="25819.00" from="79091803#2" to="247462387#4" type="P_passenger"/>
    <trip id="P25820" depart="25820.00" from="-48562293" to="-824669572#0" type="P_passenger"/>
    <trip id="P25821" depart="25821.00" from="-48509139#3" to="-108333936#0" type="P_passenger"/>
    <trip id="P25822" depart="25822.00" from="98356941#3" to="797558187" type="P_passenger"/>
    <trip id="P25823" depart="25823.00" from="-79711727#22" to="-79536638" type="P_passenger"/>
    <trip id="P25824" depart="25824.00" from="176539375#5" to="79536069#1" type="P_passenger"/>
    <trip id="P25825" depart="25825.00" from="79536209#1" to="-107286372#0" type="P_passenger"/>
    <trip id="P25826" depart="25826.00" from="-79535967#0" to="74918635#9" type="P_passenger"/>
    <trip id="P25827" depart="25827.00" from="-572035777#0" to="91859818#1" type="P_passenger"/>
    <trip id="P25828" depart="25828.00" from="571285779#1" to="821874475#2" type="P_passenger"/>
    <trip id="P25829" depart="25829.00" from="-798416902#1" to="-48377233#0" type="P_passenger"/>
    <trip id="P25830" depart="25830.00" from="-821907225#1" to="-79711727#11" type="P_passenger"/>
    <trip id="P25831" depart="25831.00" from="-821961692#6" to="-79711765" type="P_passenger"/>
    <trip id="P25832" depart="25832.00" from="92022552#3" to="48562999#4" type="P_passenger"/>
    <trip id="P25833" depart="25833.00" from="91859806" to="-824637179#0" type="P_passenger"/>
    <trip id="P25834" depart="25834.00" from="49157405#1" to="-247536000#5" type="P_passenger"/>
    <trip id="P25835" depart="25835.00" from="48395935#9" to="821969135#1" type="P_passenger"/>
    <trip id="P25836" depart="25836.00" from="-107286337#4" to="79537447#2" type="P_passenger"/>
    <trip id="P25837" depart="25837.00" from="92023679" to="74918639#8" type="P_passenger"/>
    <trip id="P25838" depart="25838.00" from="-79536263" to="78335827#3" type="P_passenger"/>
    <trip id="P25839" depart="25839.00" from="48563009#8" to="-107286394#6" type="P_passenger"/>
    <trip id="P25840" depart="25840.00" from="-79537449#3" to="633036936#1" type="P_passenger"/>
    <trip id="P25841" depart="25841.00" from="-79711727#4" to="48870206#0" type="P_passenger"/>
    <trip id="P25842" depart="25842.00" from="-78046748#1" to="79091923" type="P_passenger"/>
    <trip id="P25843" depart="25843.00" from="-824644027#1" to="79537083#0" type="P_passenger"/>
    <trip id="P25844" depart="25844.00" from="1005180357#0" to="-79536112#0" type="P_passenger"/>
    <trip id="P25845" depart="25845.00" from="821969135#2" to="572020451" type="P_passenger"/>
    <trip id="P25846" depart="25846.00" from="79536672#0" to="88528652#0" type="P_passenger"/>
    <trip id="P25847" depart="25847.00" from="79091817#0" to="79536333" type="P_passenger"/>
    <trip id="P25848" depart="25848.00" from="91859768#3" to="79536327" type="P_passenger"/>
    <trip id="P25849" depart="25849.00" from="76391866#5" to="247462329#5" type="P_passenger"/>
    <trip id="P25850" depart="25850.00" from="-90972274#0" to="79091914#4" type="P_passenger"/>
    <trip id="P25851" depart="25851.00" from="247478957#6" to="78518705" type="P_passenger"/>
    <trip id="P25852" depart="25852.00" from="79537293#0" to="633036932#2" type="P_passenger"/>
    <trip id="P25853" depart="25853.00" from="-78046880#2" to="91387725#4" type="P_passenger"/>
    <trip id="P25854" depart="25854.00" from="-79092048#1" to="79537253#0" type="P_passenger"/>
    <trip id="P25855" depart="25855.00" from="79092039#1" to="247536053" type="P_passenger"/>
    <trip id="P25856" depart="25856.00" from="49156619#0" to="-107286280#0" type="P_passenger"/>
    <trip id="P25857" depart="25857.00" from="824631907" to="-824620505" type="P_passenger"/>
    <trip id="P25858" depart="25858.00" from="48243121" to="-503110275#2" type="P_passenger"/>
    <trip id="P25859" depart="25859.00" from="-571426125" to="-873061630" type="P_passenger"/>
    <trip id="P25860" depart="25860.00" from="-247478993" to="247535962" type="P_passenger"/>
    <trip id="P25861" depart="25861.00" from="48135967#7" to="108333937#20" type="P_passenger"/>
    <trip id="P25862" depart="25862.00" from="-821535620#0" to="78046828" type="P_passenger"/>
    <trip id="P25863" depart="25863.00" from="571429945#1" to="79091836#3" type="P_passenger"/>
    <trip id="P25864" depart="25864.00" from="-247462345#2" to="-503110285#0" type="P_passenger"/>
    <trip id="P25865" depart="25865.00" from="-572035777#1" to="-627255906#0" type="P_passenger"/>
    <trip id="P25866" depart="25866.00" from="-571376325" to="79535911#0" type="P_passenger"/>
    <trip id="P25867" depart="25867.00" from="-96319769#0" to="-79091808#0" type="P_passenger"/>
    <trip id="P25868" depart="25868.00" from="822235833#5" to="633036941#4" type="P_passenger"/>
    <trip id="P25869" depart="25869.00" from="-822309862#0" to="821972518#2" type="P_passenger"/>
    <trip id="P25870" depart="25870.00" from="-1003385065" to="247462366#1" type="P_passenger"/>
    <trip id="P25871" depart="25871.00" from="572035784" to="167671622" type="P_passenger"/>
    <trip id="P25872" depart="25872.00" from="79537528#0" to="-824301591#0" type="P_passenger"/>
    <trip id="P25873" depart="25873.00" from="247545771#0" to="79537253#1" type="P_passenger"/>
    <trip id="P25874" depart="25874.00" from="-79091662#1" to="79536309#9" type="P_passenger"/>
    <trip id="P25875" depart="25875.00" from="107286295#1" to="-78518809#2" type="P_passenger"/>
    <trip id="P25876" depart="25876.00" from="633036941#15" to="-79536508#0" type="P_passenger"/>
    <trip id="P25877" depart="25877.00" from="-572017438#2" to="216293267#3" type="P_passenger"/>
    <trip id="P25878" depart="25878.00" from="79537247#0" to="-1006055858" type="P_passenger"/>
    <trip id="P25879" depart="25879.00" from="76256886#0" to="932018780#9" type="P_passenger"/>
    <trip id="P25880" depart="25880.00" from="79537176#1" to="-571836944#0" type="P_passenger"/>
    <trip id="P25881" depart="25881.00" from="-79091645" to="79535879#2" type="P_passenger"/>
    <trip id="P25882" depart="25882.00" from="-571450701" to="572146507#1" type="P_passenger"/>
    <trip id="P25883" depart="25883.00" from="-247478989#1" to="-78046826#0" type="P_passenger"/>
    <trip id="P25884" depart="25884.00" from="79711727#12" to="782472049#3" type="P_passenger"/>
    <trip id="P25885" depart="25885.00" from="-232848626#2" to="79537093#22" type="P_passenger"/>
    <trip id="P25886" depart="25886.00" from="798522387#1" to="1002492303#4" type="P_passenger"/>
    <trip id="P25887" depart="25887.00" from="79091762#5" to="-107286346#1" type="P_passenger"/>
    <trip id="P25888" depart="25888.00" from="108333920#2" to="48268641#4" type="P_passenger"/>
    <trip id="P25889" depart="25889.00" from="79092105#6" to="79091706#1" type="P_passenger"/>
    <trip id="P25890" depart="25890.00" from="-824637179#1" to="-79535667#3" type="P_passenger"/>
    <trip id="P25891" depart="25891.00" from="79091987#1" to="-823970948#1" type="P_passenger"/>
    <trip id="P25892" depart="25892.00" from="-79537183#4" to="376279911#8" type="P_passenger"/>
    <trip id="P25893" depart="25893.00" from="-821250387#0" to="107286289#5" type="P_passenger"/>
    <trip id="P25894" depart="25894.00" from="88528652#5" to="824684676#3" type="P_passenger"/>
    <trip id="P25895" depart="25895.00" from="48205260#0" to="247462360#1" type="P_passenger"/>
    <trip id="P25896" depart="25896.00" from="-78335833#4" to="-540970681#1" type="P_passenger"/>
    <trip id="P25897" depart="25897.00" from="247549499#3" to="48268341#10" type="P_passenger"/>
    <trip id="P25898" depart="25898.00" from="824662365" to="-79535816#5" type="P_passenger"/>
    <trip id="P25899" depart="25899.00" from="-824650901#0" to="48509152#1" type="P_passenger"/>
    <trip id="P25900" depart="25900.00" from="-561134173" to="-633036932#2" type="P_passenger"/>
    <trip id="P25901" depart="25901.00" from="78335842" to="824669984" type="P_passenger"/>
    <trip id="P25902" depart="25902.00" from="-96319768#1" to="-824672881" type="P_passenger"/>
    <trip id="P25903" depart="25903.00" from="366015250#0" to="79091980#1" type="P_passenger"/>
    <trip id="P25904" depart="25904.00" from="-824648947#8" to="-79091675#2" type="P_passenger"/>
    <trip id="P25905" depart="25905.00" from="571369182#0" to="79091710#0" type="P_passenger"/>
    <trip id="P25906" depart="25906.00" from="-79091696#2" to="-572101157#0" type="P_passenger"/>
    <trip id="P25907" depart="25907.00" from="-48514961#1" to="79092036#2" type="P_passenger"/>
    <trip id="P25908" depart="25908.00" from="48136201#0" to="79536031" type="P_passenger"/>
    <trip id="P25909" depart="25909.00" from="-247462326#2" to="-1005494611#0" type="P_passenger"/>
    <trip id="P25910" depart="25910.00" from="247557626" to="821229029" type="P_passenger"/>
    <trip id="P25911" depart="25911.00" from="-436185376" to="78335901#0" type="P_passenger"/>
    <trip id="P25912" depart="25912.00" from="821946086#2" to="79537088#0" type="P_passenger"/>
    <trip id="P25913" depart="25913.00" from="-821891979" to="-79536619" type="P_passenger"/>
    <trip id="P25914" depart="25914.00" from="79536600#0" to="78046810#3" type="P_passenger"/>
    <trip id="P25915" depart="25915.00" from="821945787#1" to="88520171#6" type="P_passenger"/>
    <trip id="P25916" depart="25916.00" from="79091936#0" to="-49156617#5" type="P_passenger"/>
    <trip id="P25917" depart="25917.00" from="-49157544#0" to="48268814#8" type="P_passenger"/>
    <trip id="P25918" depart="25918.00" from="903610851#1" to="78335822#2" type="P_passenger"/>
    <trip id="P25919" depart="25919.00" from="-79537033" to="79711727#13" type="P_passenger"/>
    <trip id="P25920" depart="25920.00" from="-297923440#2" to="49156615#0" type="P_passenger"/>
    <trip id="P25921" depart="25921.00" from="-247549499#7" to="821966812" type="P_passenger"/>
    <trip id="P25922" depart="25922.00" from="-79536311#0" to="78335865#4" type="P_passenger"/>
    <trip id="P25923" depart="25923.00" from="-821923849" to="-824684676#1" type="P_passenger"/>
    <trip id="P25924" depart="25924.00" from="232848628#3" to="108333965#12" type="P_passenger"/>
    <trip id="P25925" depart="25925.00" from="-824901335" to="503110293" type="P_passenger"/>
    <trip id="P25926" depart="25926.00" from="78518712#2" to="-633036941#11" type="P_passenger"/>
    <trip id="P25927" depart="25927.00" from="-788905222#1" to="180649339" type="P_passenger"/>
    <trip id="P25928" depart="25928.00" from="-49156619#5" to="247545773#2" type="P_passenger"/>
    <trip id="P25929" depart="25929.00" from="79091905" to="-232848626#2" type="P_passenger"/>
    <trip id="P25930" depart="25930.00" from="-79537457#3" to="-824896876#0" type="P_passenger"/>
    <trip id="P25931" depart="25931.00" from="91405620#2" to="78335820#5" type="P_passenger"/>
    <trip id="P25932" depart="25932.00" from="-571379973#1" to="91859822#0" type="P_passenger"/>
    <trip id="P25933" depart="25933.00" from="107286383#3" to="-89280520#3" type="P_passenger"/>
    <trip id="P25934" depart="25934.00" from="91859835" to="79536700#1" type="P_passenger"/>
    <trip id="P25935" depart="25935.00" from="79091658" to="-78046884#3" type="P_passenger"/>
    <trip id="P25936" depart="25936.00" from="96321118#4" to="-247462329#1" type="P_passenger"/>
    <trip id="P25937" depart="25937.00" from="-571426122#4" to="-79537451#8" type="P_passenger"/>
    <trip id="P25938" depart="25938.00" from="-78046855#1" to="-79092105#1" type="P_passenger"/>
    <trip id="P25939" depart="25939.00" from="893393727" to="-48375938#2" type="P_passenger"/>
    <trip id="P25940" depart="25940.00" from="95559451#0" to="-821508738" type="P_passenger"/>
    <trip id="P25941" depart="25941.00" from="935787571#1" to="76256886#0" type="P_passenger"/>
    <trip id="P25942" depart="25942.00" from="-78335829#0" to="79536407#1" type="P_passenger"/>
    <trip id="P25943" depart="25943.00" from="88750499#1" to="-824644535#2" type="P_passenger"/>
    <trip id="P25944" depart="25944.00" from="-436441827#3" to="571377955#6" type="P_passenger"/>
    <trip id="P25945" depart="25945.00" from="571389201#1" to="572146502#0" type="P_passenger"/>
    <trip id="P25946" depart="25946.00" from="-633036927" to="-247536022" type="P_passenger"/>
    <trip id="P25947" depart="25947.00" from="-247549480#1" to="-572102640#1" type="P_passenger"/>
    <trip id="P25948" depart="25948.00" from="95409160#2" to="-78046803#6" type="P_passenger"/>
    <trip id="P25949" depart="25949.00" from="79091925#0" to="-1038690866" type="P_passenger"/>
    <trip id="P25950" depart="25950.00" from="79536145#7" to="572024632#2" type="P_passenger"/>
    <trip id="P25951" depart="25951.00" from="78046810#1" to="-79091861#2" type="P_passenger"/>
    <trip id="P25952" depart="25952.00" from="-247478969" to="79536727" type="P_passenger"/>
    <trip id="P25953" depart="25953.00" from="1007548960#1" to="-79536407#0" type="P_passenger"/>
    <trip id="P25954" depart="25954.00" from="-247462332" to="88528652#5" type="P_passenger"/>
    <trip id="P25955" depart="25955.00" from="78335806#2" to="-571377955#9" type="P_passenger"/>
    <trip id="P25956" depart="25956.00" from="79535667#1" to="30517133#1-AddedOffRampEdge" type="P_passenger"/>
    <trip id="P25957" depart="25957.00" from="79091980#0" to="78335833#2" type="P_passenger"/>
    <trip id="P25958" depart="25958.00" from="98356943#9" to="-268532187#3" type="P_passenger"/>
    <trip id="P25959" depart="25959.00" from="-297923440#0" to="571835452" type="P_passenger"/>
    <trip id="P25960" depart="25960.00" from="-571301431" to="88750494#1" type="P_passenger"/>
    <trip id="P25961" depart="25961.00" from="79092036#2" to="-95411331#0" type="P_passenger"/>
    <trip id="P25962" depart="25962.00" from="-247462340" to="-821961692#1" type="P_passenger"/>
    <trip id="P25963" depart="25963.00" from="627037395" to="-247462326#5" type="P_passenger"/>
    <trip id="P25964" depart="25964.00" from="48562986#1" to="79537073" type="P_passenger"/>
    <trip id="P25965" depart="25965.00" from="821949194" to="48136202#0" type="P_passenger"/>
    <trip id="P25966" depart="25966.00" from="-88750521#2" to="-824618445#3" type="P_passenger"/>
    <trip id="P25967" depart="25967.00" from="-107286379" to="48357657#6" type="P_passenger"/>
    <trip id="P25968" depart="25968.00" from="49157544#2" to="-79091856#0" type="P_passenger"/>
    <trip id="P25969" depart="25969.00" from="78046845#0" to="-78335820#5" type="P_passenger"/>
    <trip id="P25970" depart="25970.00" from="108452906#2" to="788587783#0" type="P_passenger"/>
    <trip id="P25971" depart="25971.00" from="405395786#2" to="79537023#1" type="P_passenger"/>
    <trip id="P25972" depart="25972.00" from="822231290" to="79091862" type="P_passenger"/>
    <trip id="P25973" depart="25973.00" from="-1008002436" to="-823976214#0" type="P_passenger"/>
    <trip id="P25974" depart="25974.00" from="-79091762#3" to="-821229023#3" type="P_passenger"/>
    <trip id="P25975" depart="25975.00" from="391060080" to="48268641#2" type="P_passenger"/>
    <trip id="P25976" depart="25976.00" from="824648945#2" to="247557161#1" type="P_passenger"/>
    <trip id="P25977" depart="25977.00" from="98356941#1" to="571377235#1" type="P_passenger"/>
    <trip id="P25978" depart="25978.00" from="79091696#3" to="108333937#5" type="P_passenger"/>
    <trip id="P25979" depart="25979.00" from="142724413#5" to="79536334#1" type="P_passenger"/>
    <trip id="P25980" depart="25980.00" from="-79711790#0" to="-79091870#2" type="P_passenger"/>
    <trip id="P25981" depart="25981.00" from="-821966812" to="571372352" type="P_passenger"/>
    <trip id="P25982" depart="25982.00" from="-74433340#1" to="48562798#1" type="P_passenger"/>
    <trip id="P25983" depart="25983.00" from="-79536037" to="-79535792#2" type="P_passenger"/>
    <trip id="P25984" depart="25984.00" from="-247555570#0" to="821515469" type="P_passenger"/>
    <trip id="P25985" depart="25985.00" from="79535622#2" to="-824300377#10" type="P_passenger"/>
    <trip id="P25986" depart="25986.00" from="-79092002#1" to="232848628#8" type="P_passenger"/>
    <trip id="P25987" depart="25987.00" from="48514961#16" to="78046873#5" type="P_passenger"/>
    <trip id="P25988" depart="25988.00" from="819566323" to="-247536027" type="P_passenger"/>
    <trip id="P25989" depart="25989.00" from="-268532191" to="-108452863#6" type="P_passenger"/>
    <trip id="P25990" depart="25990.00" from="247549499#6" to="78046859#2" type="P_passenger"/>
    <trip id="P25991" depart="25991.00" from="167671619#17" to="78046879#2" type="P_passenger"/>
    <trip id="P25992" depart="25992.00" from="-571377484#1" to="-78046716#0" type="P_passenger"/>
    <trip id="P25993" depart="25993.00" from="-735027521#3" to="633036926#2" type="P_passenger"/>
    <trip id="P25994" depart="25994.00" from="-79536328#2" to="-79536792#3" type="P_passenger"/>
    <trip id="P25995" depart="25995.00" from="48395935#0" to="-79537382#1" type="P_passenger"/>
    <trip id="P25996" depart="25996.00" from="108333937#14" to="79536570#0" type="P_passenger"/>
    <trip id="P25997" depart="25997.00" from="79536209#2" to="48136203#7" type="P_passenger"/>
    <trip id="P25998" depart="25998.00" from="375278864#10" to="79536118#2" type="P_passenger"/>
    <trip id="P25999" depart="25999.00" from="-88528652#3" to="572102376#0" type="P_passenger"/>
    <trip id="P26000" depart="26000.00" from="819578582#1" to="-821504311" type="P_passenger"/>
    <trip id="P26001" depart="26001.00" from="91399077#1" to="-419628716#2" type="P_passenger"/>
    <trip id="P26002" depart="26002.00" from="-79536180#0" to="-571384859#2" type="P_passenger"/>
    <trip id="P26003" depart="26003.00" from="-824631901#0" to="-572147998#2" type="P_passenger"/>
    <trip id="P26004" depart="26004.00" from="79091836#7" to="-48399847#4" type="P_passenger"/>
    <trip id="P26005" depart="26005.00" from="-571434356#1" to="79091705#3" type="P_passenger"/>
    <trip id="P26006" depart="26006.00" from="247462347#2" to="-79091949#1" type="P_passenger"/>
    <trip id="P26007" depart="26007.00" from="79536046#1" to="-48135815#2" type="P_passenger"/>
    <trip id="P26008" depart="26008.00" from="-79091980#2" to="48136202#3" type="P_passenger"/>
    <trip id="P26009" depart="26009.00" from="107286351#0" to="79536142#0" type="P_passenger"/>
    <trip id="P26010" depart="26010.00" from="73579003#1" to="-571374847#2" type="P_passenger"/>
    <trip id="P26011" depart="26011.00" from="79092037#1" to="-79091858" type="P_passenger"/>
    <trip id="P26012" depart="26012.00" from="530397328#1" to="-821908612#0" type="P_passenger"/>
    <trip id="P26013" depart="26013.00" from="-824623877#0" to="824637179#1" type="P_passenger"/>
    <trip id="P26014" depart="26014.00" from="572145737#0" to="-627284435#4" type="P_passenger"/>
    <trip id="P26015" depart="26015.00" from="-821888938" to="48870204#3" type="P_passenger"/>
    <trip id="P26016" depart="26016.00" from="-571282029#1" to="-79091823#0" type="P_passenger"/>
    <trip id="P26017" depart="26017.00" from="-78046806#2" to="90972272#4" type="P_passenger"/>
    <trip id="P26018" depart="26018.00" from="79536797#2" to="79536328#2" type="P_passenger"/>
    <trip id="P26019" depart="26019.00" from="107286358#1" to="797701645#3" type="P_passenger"/>
    <trip id="P26020" depart="26020.00" from="-79091807#3" to="88370689" type="P_passenger"/>
    <trip id="P26021" depart="26021.00" from="903610851#0" to="247462362#0" type="P_passenger"/>
    <trip id="P26022" depart="26022.00" from="-108333855#1" to="797032950#1" type="P_passenger"/>
    <trip id="P26023" depart="26023.00" from="571370215#1" to="-79091879#0" type="P_passenger"/>
    <trip id="P26024" depart="26024.00" from="-88750520#1" to="-96319773#1" type="P_passenger"/>
    <trip id="P26025" depart="26025.00" from="-247462375#1" to="247536031" type="P_passenger"/>
    <trip id="P26026" depart="26026.00" from="91393352#5" to="88520171#3" type="P_passenger"/>
    <trip id="P26027" depart="26027.00" from="48268647" to="79536797#3" type="P_passenger"/>
    <trip id="P26028" depart="26028.00" from="-48135818#0" to="74918639#9" type="P_passenger"/>
    <trip id="P26029" depart="26029.00" from="572152396" to="88740886" type="P_passenger"/>
    <trip id="P26030" depart="26030.00" from="48135815#1" to="-78046716#1" type="P_passenger"/>
    <trip id="P26031" depart="26031.00" from="824671963" to="48514961#25" type="P_passenger"/>
    <trip id="P26032" depart="26032.00" from="-436185379#1" to="79537326" type="P_passenger"/>
    <trip id="P26033" depart="26033.00" from="-79091727#6" to="824620505" type="P_passenger"/>
    <trip id="P26034" depart="26034.00" from="-821229023#6" to="111796791#5" type="P_passenger"/>
    <trip id="P26035" depart="26035.00" from="571425905" to="-798416902#0" type="P_passenger"/>
    <trip id="P26036" depart="26036.00" from="572146629#1" to="-821907224#0" type="P_passenger"/>
    <trip id="P26037" depart="26037.00" from="-107286283#1" to="-111796790#3" type="P_passenger"/>
    <trip id="P26038" depart="26038.00" from="247549499#8" to="-824617659#0" type="P_passenger"/>
    <trip id="P26039" depart="26039.00" from="78046824#1" to="-79536675" type="P_passenger"/>
    <trip id="P26040" depart="26040.00" from="-571465480#2" to="91393352#7" type="P_passenger"/>
    <trip id="P26041" depart="26041.00" from="-821882278#2" to="79535789#8" type="P_passenger"/>
    <trip id="P26042" depart="26042.00" from="572108380#2" to="-78046786#8" type="P_passenger"/>
    <trip id="P26043" depart="26043.00" from="176539406#4" to="824684676#2" type="P_passenger"/>
    <trip id="P26044" depart="26044.00" from="79091936#2" to="824644031" type="P_passenger"/>
    <trip id="P26045" depart="26045.00" from="76503806#8" to="821535621#1" type="P_passenger"/>
    <trip id="P26046" depart="26046.00" from="-78046844#1" to="-79092079#3" type="P_passenger"/>
    <trip id="P26047" depart="26047.00" from="247549480#1" to="-571395007#0" type="P_passenger"/>
    <trip id="P26048" depart="26048.00" from="821961697#1" to="-79536767#7" type="P_passenger"/>
    <trip id="P26049" depart="26049.00" from="-824301591#0" to="821229024#4" type="P_passenger"/>
    <trip id="P26050" depart="26050.00" from="92023679" to="-436441832" type="P_passenger"/>
    <trip id="P26051" depart="26051.00" from="79537260#1" to="-79536765" type="P_passenger"/>
    <trip id="P26052" depart="26052.00" from="540970681#2" to="-824300377#6" type="P_passenger"/>
    <trip id="P26053" depart="26053.00" from="627284435#3" to="-247549486#4" type="P_passenger"/>
    <trip id="P26054" depart="26054.00" from="-79536123" to="79091962#0" type="P_passenger"/>
    <trip id="P26055" depart="26055.00" from="-79535667#2" to="-79536600#2" type="P_passenger"/>
    <trip id="P26056" depart="26056.00" from="-821504313" to="-821965450#0" type="P_passenger"/>
    <trip id="P26057" depart="26057.00" from="-1005479959" to="-571426122#8" type="P_passenger"/>
    <trip id="P26058" depart="26058.00" from="-572102640#5" to="-247557147#0" type="P_passenger"/>
    <trip id="P26059" depart="26059.00" from="571386406" to="78335740#2" type="P_passenger"/>
    <trip id="P26060" depart="26060.00" from="366015250#5" to="893394226#6" type="P_passenger"/>
    <trip id="P26061" depart="26061.00" from="-79537229#5" to="-49156615#1" type="P_passenger"/>
    <trip id="P26062" depart="26062.00" from="-372926771#1" to="91405620#1" type="P_passenger"/>
    <trip id="P26063" depart="26063.00" from="893393727" to="821560546" type="P_passenger"/>
    <trip id="P26064" depart="26064.00" from="-79535692#3" to="48377231" type="P_passenger"/>
    <trip id="P26065" depart="26065.00" from="360913622#1" to="79091660#1" type="P_passenger"/>
    <trip id="P26066" depart="26066.00" from="-107286406#6" to="48562548#0" type="P_passenger"/>
    <trip id="P26067" depart="26067.00" from="-573331704#0" to="824636489#5" type="P_passenger"/>
    <trip id="P26068" depart="26068.00" from="-572162014" to="-176539406#11" type="P_passenger"/>
    <trip id="P26069" depart="26069.00" from="788905220#1" to="824636491#2" type="P_passenger"/>
    <trip id="P26070" depart="26070.00" from="821244986#3" to="79536678#1" type="P_passenger"/>
    <trip id="P26071" depart="26071.00" from="1005781445" to="824600072" type="P_passenger"/>
    <trip id="P26072" depart="26072.00" from="48981809#0" to="-247462319#0" type="P_passenger"/>
    <trip id="P26073" depart="26073.00" from="79536292" to="79536817#2" type="P_passenger"/>
    <trip id="P26074" depart="26074.00" from="-90972274#2" to="48135815#0" type="P_passenger"/>
    <trip id="P26075" depart="26075.00" from="78335742#1" to="-78046744#1" type="P_passenger"/>
    <trip id="P26076" depart="26076.00" from="-74740742#3" to="788613104#2" type="P_passenger"/>
    <trip id="P26077" depart="26077.00" from="107286419#7" to="-247535950#0" type="P_passenger"/>
    <trip id="P26078" depart="26078.00" from="824650234#0" to="76507749#0" type="P_passenger"/>
    <trip id="P26079" depart="26079.00" from="503110275#5" to="95405421#2" type="P_passenger"/>
    <trip id="P26080" depart="26080.00" from="247462357#1" to="-79091967#2" type="P_passenger"/>
    <trip id="P26081" depart="26081.00" from="78046882#0" to="-79537469#2" type="P_passenger"/>
    <trip id="P26082" depart="26082.00" from="633072647#3" to="-78335863#1" type="P_passenger"/>
    <trip id="P26083" depart="26083.00" from="74842973#3" to="571374869#0" type="P_passenger"/>
    <trip id="P26084" depart="26084.00" from="48981800#3" to="79091810" type="P_passenger"/>
    <trip id="P26085" depart="26085.00" from="-572102378" to="-79091925#5" type="P_passenger"/>
    <trip id="P26086" depart="26086.00" from="-821874475#1" to="-78518775" type="P_passenger"/>
    <trip id="P26087" depart="26087.00" from="-571373317" to="-822235834" type="P_passenger"/>
    <trip id="P26088" depart="26088.00" from="-79535929#0" to="96321160" type="P_passenger"/>
    <trip id="P26089" depart="26089.00" from="1038690866" to="-79536453#1" type="P_passenger"/>
    <trip id="P26090" depart="26090.00" from="1007590625" to="-79091984#0" type="P_passenger"/>
    <trip id="P26091" depart="26091.00" from="-247535961" to="247535993#0" type="P_passenger"/>
    <trip id="P26092" depart="26092.00" from="-821580501#1" to="108333936#0" type="P_passenger"/>
    <trip id="P26093" depart="26093.00" from="-79537039#1" to="-79091856#0" type="P_passenger"/>
    <trip id="P26094" depart="26094.00" from="-47997594#4" to="429965961#0" type="P_passenger"/>
    <trip id="P26095" depart="26095.00" from="-78046885#2" to="-247557161#1" type="P_passenger"/>
    <trip id="P26096" depart="26096.00" from="79091710#0" to="822358805#2" type="P_passenger"/>
    <trip id="P26097" depart="26097.00" from="-821646372" to="88750489#3" type="P_passenger"/>
    <trip id="P26098" depart="26098.00" from="78335778#0" to="-78335809#7" type="P_passenger"/>
    <trip id="P26099" depart="26099.00" from="821900518#2" to="-824620502" type="P_passenger"/>
    <trip id="P26100" depart="26100.00" from="-821229023#3" to="-79092029#0" type="P_passenger"/>
    <trip id="P26101" depart="26101.00" from="-48871851#7" to="79536704#1" type="P_passenger"/>
    <trip id="P26102" depart="26102.00" from="824684671#0" to="79091859#2" type="P_passenger"/>
    <trip id="P26103" depart="26103.00" from="822231291#6" to="79535957#2" type="P_passenger"/>
    <trip id="P26104" depart="26104.00" from="48136192#0" to="-821923847" type="P_passenger"/>
    <trip id="P26105" depart="26105.00" from="79536842#4" to="-821657665#0" type="P_passenger"/>